@<TRIPOS>MOLECULE
DFA+FDE+FDE+FDE+FDE
   157   162  1  0  0
SMALL
gas

@<TRIPOS>ATOM
      1 N1         94.2800   99.1100   99.9100 n3      1  DFA       -0.3248
      2 C          95.3100   99.9400  100.5800 c3      1  DFA        0.0403
      3 C1         96.7600   99.6000  100.3300 cc      1  DFA        0.0725
      4 H          95.1300   99.9200  101.6600 h1      1  DFA        0.0498
      5 H1         95.2000  100.9800  100.2800 h1      1  DFA        0.0498
      6 O          97.4400  100.2400   99.3300 os      1  DFA       -0.3174
      7 C2         97.5200   98.7700  101.1100 cd      1  DFA       -0.0319
      8 C3         98.7100   99.7700   99.5300 cc      1  DFA        0.0654
      9 C4         98.8300   98.8800  100.5700 cd      1  DFA       -0.0327
     10 C5         99.8200  100.2500   98.6300 c3      1  DFA        0.0418
     11 C6        101.2200   99.9500   99.1000 cc      1  DFA        0.0654
     12 H2         99.7200  101.3400   98.5100 hc      1  DFA        0.0409
     13 H3         99.6700   99.8300   97.6300 hc      1  DFA        0.0409
     14 C7        101.9200   98.8300   98.7200 cd      1  DFA       -0.0327
     15 C8        103.2700   99.1200   99.0600 cd      1  DFA       -0.0319
     16 O1        101.9800  100.9300   99.6700 os      1  DFA       -0.3174
     17 C9        103.2300  100.3800   99.6200 cc      1  DFA        0.0725
     18 C10       104.4300  101.2600   99.8600 c3      1  DFA        0.0403
     19 N2        105.7400  100.5500   99.9600 n3      1  DFA       -0.3248
     20 H4        104.2700  101.8600  100.7600 h1      1  DFA        0.0498
     21 H5        104.4400  101.9500   99.0200 h1      1  DFA        0.0498
     22 H10        97.2100   98.1900  101.9700 ha      1  DFA        0.0648
     23 H11        99.7300   98.3800  100.9200 ha      1  DFA        0.0648
     24 H12       101.5600   97.9700   98.1800 ha      1  DFA        0.0648
     25 H13       104.1400   98.5200   98.8300 ha      1  DFA        0.0648
     26 O          89.7300   96.3400   98.8600 os      2  FDE       -0.3212
     27 C          89.3000   96.3800   97.5600 cc      2  FDE        0.0455
     28 C3         89.8500   95.4200   96.7500 cd      2  FDE       -0.0364
     29 C4         90.6100   95.2800   98.8200 cc      2  FDE        0.0725
     30 C5         90.7200   94.6800   97.5900 cd      2  FDE       -0.0322
     31 C6         91.3400   94.8200  100.0400 c3      2  FDE        0.0457
     32 N          92.8200   94.9200   99.9000 n3      2  FDE       -0.2919
     33 H          91.0500   93.7700  100.2100 h1      2  FDE        0.0503
     34 H1         91.0000   95.3900  100.9200 h1      2  FDE        0.0503
     35 C7         93.5300   93.9500  100.7700 c3      2  FDE        0.0245
     36 C8         93.3300   96.3100  100.0000 c3      2  FDE        0.0245
     37 C9         93.8300   96.9000   98.6600 c3      2  FDE        0.0639
     38 H2         94.1800   96.3400  100.7100 h1      2  FDE        0.0458
     39 H3         92.5600   96.9600  100.4300 h1      2  FDE        0.0458
     40 C1         94.7100   98.1700   98.8300 c3      2  FDE       -0.0377
     41 H5         94.7900   98.7000   97.8800 hc      2  FDE        0.0257
     42 H6         95.7100   97.7900   99.0600 hc      2  FDE        0.0257
     43 O1         92.7500   97.1600   97.7600 oh      2  FDE       -0.3921
     44 H7         94.4700   96.1500   98.1900 h1      2  FDE        0.0611
     45 C10        94.9800   93.6900  100.3200 c3      2  FDE        0.0639
     46 H8         93.0000   92.9900  100.7600 h1      2  FDE        0.0458
     47 H9         93.5200   94.3200  101.8100 h1      2  FDE        0.0458
     48 O2         95.6300   92.8500  101.2800 oh      2  FDE       -0.3921
     49 C2         95.0500   93.0100   98.9300 c3      2  FDE       -0.0377
     50 H10        95.5300   94.6400  100.2600 h1      2  FDE        0.0611
     51 H11        94.4900   92.0700   98.9300 hc      2  FDE        0.0257
     52 H12        96.0800   92.8000   98.6500 hc      2  FDE        0.0257
     53 H13        94.6200   93.6600   98.1600 hc      2  FDE        0.0257
     54 H14        95.1600   92.0000  101.2800 ho      2  FDE        0.2105
     55 H15        92.1300   97.7700   98.2000 ho      2  FDE        0.2105
     56 H16        88.5800   97.1600   97.3200 h4      2  FDE        0.0902
     57 H17        89.6700   95.2600   95.7000 ha      2  FDE        0.0645
     58 H18        91.3500   93.8400   97.3100 ha      2  FDE        0.0648
     59 O          96.4200  104.9900  101.0400 os      3  FDE       -0.3212
     60 C          96.9100  104.8000  102.3000 cc      3  FDE        0.0455
     61 C3         96.3500  103.7300  102.9500 cd      3  FDE       -0.0364
     62 C4         95.5000  103.9800  100.9300 cc      3  FDE        0.0725
     63 C5         95.4200  103.1800  102.0400 cd      3  FDE       -0.0322
     64 C6         94.7800  103.7500   99.6200 c3      3  FDE        0.0457
     65 N          93.6100  102.8400   99.7100 n3      3  FDE       -0.2919
     66 H          95.5300  103.3300   98.9400 h1      3  FDE        0.0503
     67 H1         94.4800  104.7200   99.1900 h1      3  FDE        0.0503
     68 C7         93.5400  101.9400   98.5300 c3      3  FDE        0.0245
     69 C8         92.3100  103.5100  100.0200 c3      3  FDE        0.0245
     70 C9         92.2800  104.3900  101.3000 c3      3  FDE        0.0639
     71 H2         91.5400  102.7400  100.1500 h1      3  FDE        0.0458
     72 H3         92.0000  104.1200   99.1600 h1      3  FDE        0.0458
     73 C1         90.8400  104.5700  101.8100 c3      3  FDE       -0.0377
     74 H4         90.2100  105.0500  101.0500 hc      3  FDE        0.0257
     75 H5         90.8200  105.1900  102.7100 hc      3  FDE        0.0257
     76 H6         90.3900  103.6000  102.0600 hc      3  FDE        0.0257
     77 O1         92.8200  105.6800  101.0300 oh      3  FDE       -0.3921
     78 H7         92.8500  103.8900  102.0900 h1      3  FDE        0.0611
     79 C10        92.6000  100.7200   98.6800 c3      3  FDE        0.0639
     80 H8         94.5400  101.5500   98.3100 h1      3  FDE        0.0458
     81 H9         93.2300  102.5200   97.6600 h1      3  FDE        0.0458
     82 O2         92.5300  100.0300   97.4400 oh      3  FDE       -0.3921
     83 C2         92.9200   99.7300   99.8500 c3      3  FDE       -0.0377
     84 H10        91.5900  101.1000   98.8700 h1      3  FDE        0.0611
     85 H12        92.1700   98.9400   99.8100 hc      3  FDE        0.0257
     86 H13        92.7500  100.2700  100.7900 hc      3  FDE        0.0257
     87 H14        93.3500   99.5000   97.3500 ho      3  FDE        0.2105
     88 H15        92.9600  106.1300  101.8800 ho      3  FDE        0.2105
     89 H16        97.6700  105.4900  102.6300 h4      3  FDE        0.0902
     90 H17        96.5800  103.3700  103.9500 ha      3  FDE        0.0645
     91 H18        94.7900  102.3100  102.1900 ha      3  FDE        0.0648
     92 O         106.1700  105.7100   96.1600 os      4  FDE       -0.3212
     93 C         107.1500  106.6200   96.4300 cc      4  FDE        0.0455
     94 C3        108.4200  106.1100   96.3600 cd      4  FDE       -0.0364
     95 C4        106.9000  104.5700   95.9400 cc      4  FDE        0.0725
     96 C5        108.2500  104.7400   96.0300 cd      4  FDE       -0.0322
     97 C6        106.2000  103.2800   95.5900 c3      4  FDE        0.0457
     98 N         107.0000  102.0700   95.9200 n3      4  FDE       -0.2919
     99 H         106.0000  103.3200   94.5100 h1      4  FDE        0.0503
    100 H1        105.2300  103.2500   96.0900 h1      4  FDE        0.0503
    101 C7        107.0400  101.1100   94.7900 c3      4  FDE        0.0245
    102 C8        106.6400  101.4500   97.2300 c3      4  FDE        0.0245
    103 C9        107.0200  102.2700   98.4900 c3      4  FDE        0.0639
    104 H2        107.1600  100.4900   97.3200 h1      4  FDE        0.0458
    105 H3        105.5700  101.2200   97.2400 h1      4  FDE        0.0458
    106 C1        106.9400  101.4200   99.7900 c3      4  FDE       -0.0377
    107 H5        107.0400  102.0900  100.6500 hc      4  FDE        0.0257
    108 H6        107.8400  100.7800   99.7800 hc      4  FDE        0.0257
    109 O1        106.2500  103.4500   98.6400 oh      4  FDE       -0.3921
    110 H7        108.0700  102.5700   98.3700 h1      4  FDE        0.0611
    111 C10       108.2000  100.0800   94.8700 c3      4  FDE        0.0639
    112 H8        107.1700  101.6600   93.8500 h1      4  FDE        0.0458
    113 H9        106.0900  100.5700   94.7300 h1      4  FDE        0.0458
    114 O2        108.1500   99.2400   93.7200 oh      4  FDE       -0.3921
    115 C2        109.5800  100.7600   94.9400 c3      4  FDE       -0.0377
    116 H10       108.0700   99.4600   95.7700 h1      4  FDE        0.0611
    117 H11       109.7300  101.4400   94.0900 hc      4  FDE        0.0257
    118 H12       110.3800  100.0100   94.9300 hc      4  FDE        0.0257
    119 H13       109.6900  101.3500   95.8700 hc      4  FDE        0.0257
    120 H14       108.3100   99.8000   92.9400 ho      4  FDE        0.2105
    121 H15       106.6800  104.0200   99.3000 ho      4  FDE        0.2105
    122 H16       106.8200  107.6300   96.6500 h4      4  FDE        0.0902
    123 H17       109.3600  106.6300   96.5300 ha      4  FDE        0.0645
    124 H18       109.0300  104.0000   95.8900 ha      4  FDE        0.0648
    125 O         104.4000   98.0600  106.7800 os      5  FDE       -0.3212
    126 C         103.1000   98.4900  106.8000 cc      5  FDE        0.0455
    127 C3        102.6200   98.8400  105.5600 cd      5  FDE       -0.0364
    128 C4        104.7200   98.1800  105.4500 cc      5  FDE        0.0725
    129 C5        103.6900   98.6400  104.6700 cd      5  FDE       -0.0322
    130 C6        106.0700   97.7800  104.9400 c3      5  FDE        0.0457
    131 N         106.5500   98.6900  103.8700 n3      5  FDE       -0.2919
    132 H         105.9900   96.7500  104.5600 h1      5  FDE        0.0503
    133 H1        106.7900   97.7500  105.7700 h1      5  FDE        0.0503
    134 C7        107.0000   97.9800  102.6500 c3      5  FDE        0.0245
    135 C8        107.4200   99.8100  104.3200 c3      5  FDE        0.0245
    136 C9        106.7800  100.7400  105.3800 c3      5  FDE        0.0639
    137 H2        107.6800  100.4300  103.4500 h1      5  FDE        0.0458
    138 H3        108.3700   99.4100  104.7100 h1      5  FDE        0.0458
    139 C1        107.3500  102.1700  105.2900 c3      5  FDE       -0.0377
    140 H4        108.4300  102.1700  105.4600 hc      5  FDE        0.0257
    141 H5        106.8800  102.8100  106.0500 hc      5  FDE        0.0257
    142 H6        107.1500  102.6000  104.3100 hc      5  FDE        0.0257
    143 O1        107.0200  100.2300  106.6900 oh      5  FDE       -0.3921
    144 H7        105.7000  100.7900  105.1900 h1      5  FDE        0.0611
    145 C10       107.0900   98.8800  101.3900 c3      5  FDE        0.0639
    146 H8        106.2900   97.1700  102.4300 h1      5  FDE        0.0458
    147 H9        107.9800   97.5100  102.8300 h1      5  FDE        0.0458
    148 O2        107.3300   98.0600  100.2500 oh      5  FDE       -0.3921
    149 C2        105.7900   99.7200  101.1900 c3      5  FDE       -0.0377
    150 H10       107.9400   99.5600  101.5300 h1      5  FDE        0.0611
    151 H11       104.9400   99.0200  101.2100 hc      5  FDE        0.0257
    152 H13       105.6700  100.3800  102.0600 hc      5  FDE        0.0257
    153 H14       106.5300   97.5400  100.0800 ho      5  FDE        0.2105
    154 H15       106.3900  100.6600  107.2900 ho      5  FDE        0.2105
    155 H16       102.6100   98.4900  107.7600 h4      5  FDE        0.0902
    156 H17       101.6200   99.2000  105.3200 ha      5  FDE        0.0645
    157 H18       103.7000   98.8000  103.5900 ha      5  FDE        0.0648
@<TRIPOS>BOND
     1     1     2    1
     2     2     3    1
     3     2     4    1
     4     2     5    1
     5     3     6    1
     6     3     7    2
     7     6     8    1
     8     8     9    2
     9     7     9    1
    10     8    10    1
    11    10    11    1
    12    10    12    1
    13    10    13    1
    14    11    14    2
    15    14    15    1
    16    11    16    1
    17    16    17    1
    18    15    17    2
    19    17    18    1
    20    18    19    1
    21    18    20    1
    22    18    21    1
    23     7    22    1
    24     9    23    1
    25    14    24    1
    26    15    25    1
    27    26    27    1
    28    27    28    2
    29    26    29    1
    30    29    30    2
    31    28    30    1
    32    29    31    1
    33    31    32    1
    34    31    33    1
    35    31    34    1
    36    32    35    1
    37    32    36    1
    38    36    37    1
    39    36    38    1
    40    36    39    1
    41    37    40    1
    42    40    41    1
    43    40    42    1
    44    37    43    1
    45    37    44    1
    46    35    45    1
    47    35    46    1
    48    35    47    1
    49    45    48    1
    50    45    49    1
    51    45    50    1
    52    49    51    1
    53    49    52    1
    54    49    53    1
    55    48    54    1
    56    43    55    1
    57    27    56    1
    58    28    57    1
    59    30    58    1
    60     1    40    1
    61    59    60    1
    62    60    61    2
    63    59    62    1
    64    62    63    2
    65    61    63    1
    66    62    64    1
    67    64    65    1
    68    64    66    1
    69    64    67    1
    70    65    68    1
    71    65    69    1
    72    69    70    1
    73    69    71    1
    74    69    72    1
    75    70    73    1
    76    73    74    1
    77    73    75    1
    78    73    76    1
    79    70    77    1
    80    70    78    1
    81    68    79    1
    82    68    80    1
    83    68    81    1
    84    79    82    1
    85    79    83    1
    86    79    84    1
    87    83    85    1
    88    83    86    1
    89    82    87    1
    90    77    88    1
    91    60    89    1
    92    61    90    1
    93    63    91    1
    94     1    83    1
    95    92    93    1
    96    93    94    2
    97    92    95    1
    98    95    96    2
    99    94    96    1
   100    95    97    1
   101    97    98    1
   102    97    99    1
   103    97   100    1
   104    98   101    1
   105    98   102    1
   106   102   103    1
   107   102   104    1
   108   102   105    1
   109   103   106    1
   110   106   107    1
   111   106   108    1
   112   103   109    1
   113   103   110    1
   114   101   111    1
   115   101   112    1
   116   101   113    1
   117   111   114    1
   118   111   115    1
   119   111   116    1
   120   115   117    1
   121   115   118    1
   122   115   119    1
   123   114   120    1
   124   109   121    1
   125    93   122    1
   126    94   123    1
   127    96   124    1
   128    19   106    1
   129   125   126    1
   130   126   127    2
   131   125   128    1
   132   128   129    2
   133   127   129    1
   134   128   130    1
   135   130   131    1
   136   130   132    1
   137   130   133    1
   138   131   134    1
   139   131   135    1
   140   135   136    1
   141   135   137    1
   142   135   138    1
   143   136   139    1
   144   139   140    1
   145   139   141    1
   146   139   142    1
   147   136   143    1
   148   136   144    1
   149   134   145    1
   150   134   146    1
   151   134   147    1
   152   145   148    1
   153   145   149    1
   154   145   150    1
   155   149   151    1
   156   149   152    1
   157   148   153    1
   158   143   154    1
   159   126   155    1
   160   127   156    1
   161   129   157    1
   162    19   149    1
