@<TRIPOS>MOLECULE
DFA+FDE+FDE
    93    96  1  0  0
SMALL
gas

@<TRIPOS>ATOM
      1 N1         89.4400   97.3200  100.3900 n3      1  DFA       -0.3248
      2 C          89.9500   98.7000  100.4400 c3      1  DFA        0.0403
      3 C1         91.4400   98.7500  100.2000 cc      1  DFA        0.0725
      4 H          89.7300   99.1300  101.4300 h1      1  DFA        0.0498
      5 H1         89.4500   99.3100   99.6900 h1      1  DFA        0.0498
      6 O          92.2900   99.1500  101.2000 os      1  DFA       -0.3174
      7 C2         92.0400   98.4700   99.0100 cd      1  DFA       -0.0319
      8 C3         93.5000   99.1000  100.5500 cc      1  DFA        0.0654
      9 C4         93.4200   98.7100   99.2400 cd      1  DFA       -0.0327
     10 C5         94.7500   99.5100  101.2700 c3      1  DFA        0.0418
     11 C6         96.0300   98.9400  100.7000 cc      1  DFA        0.0654
     12 H2         94.6700   99.2200  102.3300 hc      1  DFA        0.0409
     13 H3         94.8200  100.6000  101.2700 hc      1  DFA        0.0409
     14 C7         96.2800   97.6000  100.5300 cd      1  DFA       -0.0327
     15 C8         97.6300   97.5400  100.1000 cd      1  DFA       -0.0319
     16 O1         97.0900   99.7500  100.4400 os      1  DFA       -0.3174
     17 C9         98.0400   98.8500  100.0800 cc      1  DFA        0.0725
     18 C10        99.4700   99.2900   99.8800 c3      1  DFA        0.0403
     19 N2        100.3800   98.8100  100.9500 n3      1  DFA       -0.3248
     20 H4         99.5000  100.3800   99.8300 h1      1  DFA        0.0498
     21 H5         99.8100   98.9100   98.9100 h1      1  DFA        0.0498
     22 H6         88.4300   97.3300  100.5300 hn      1  DFA        0.1188
     23 H7         89.6000   96.9400   99.4600 hn      1  DFA        0.1188
     24 H10        91.5700   98.1500   98.0800 ha      1  DFA        0.0648
     25 H11        94.2300   98.6100   98.5200 ha      1  DFA        0.0648
     26 H12        95.6100   96.7700  100.7200 ha      1  DFA        0.0648
     27 H13        98.2200   96.6500   99.9200 ha      1  DFA        0.0648
     28 O         106.6800  101.2900   97.5800 os      2  FDE       -0.3212
     29 C         106.1000  101.8800   96.4900 cc      2  FDE        0.0455
     30 C3        104.7400  101.6900   96.4100 cd      2  FDE       -0.0364
     31 C4        105.6000  100.6900   98.1800 cc      2  FDE        0.0725
     32 C5        104.4100  100.9000   97.5500 cd      2  FDE       -0.0322
     33 C6        105.7700   99.9500   99.4800 c3      2  FDE        0.0457
     34 N         104.7300   98.9100   99.7100 n3      2  FDE       -0.2919
     35 H         105.7300  100.7100  100.2700 h1      2  FDE        0.0503
     36 H1        106.7700   99.5000   99.5400 h1      2  FDE        0.0503
     37 C7        104.3100   98.8500  101.1300 c3      2  FDE        0.0245
     38 C8        105.0300   97.5700   99.1500 c3      2  FDE        0.0245
     39 C9        105.4600   97.5200   97.6600 c3      2  FDE        0.0639
     40 H2        104.1400   96.9400   99.2500 h1      2  FDE        0.0458
     41 H3        105.8200   97.0900   99.7500 h1      2  FDE        0.0458
     42 C1        105.2400   96.1100   97.0600 c3      2  FDE       -0.0377
     43 H4        105.8200   95.3600   97.6100 hc      2  FDE        0.0257
     44 H5        105.5600   96.0800   96.0100 hc      2  FDE        0.0257
     45 H6        104.1800   95.8300   97.1000 hc      2  FDE        0.0257
     46 O1        106.8500   97.8400   97.5300 oh      2  FDE       -0.3921
     47 H7        104.8500   98.2300   97.0900 h1      2  FDE        0.0611
     48 C10       102.9000   98.2500  101.3500 c3      2  FDE        0.0639
     49 H8        104.2900   99.8600  101.5500 h1      2  FDE        0.0458
     50 H9        105.0400   98.2800  101.7000 h1      2  FDE        0.0458
     51 O2        102.7200   98.1400  102.7600 oh      2  FDE       -0.3921
     52 C2        101.8100   99.1200  100.6500 c3      2  FDE       -0.0377
     53 H10       102.8600   97.2400  100.9300 h1      2  FDE        0.0611
     54 H11       102.0100  100.1800  100.8500 hc      2  FDE        0.0257
     55 H13       101.9700   98.9900   99.5700 hc      2  FDE        0.0257
     56 H14       102.5800   99.0300  103.1200 ho      2  FDE        0.2105
     57 H15       107.0300   98.0100   96.5900 ho      2  FDE        0.2105
     58 H16       106.7600  102.4300   95.8400 h4      2  FDE        0.0902
     59 H17       104.0600  102.0600   95.6600 ha      2  FDE        0.0645
     60 H18       103.4200  100.5500   97.8400 ha      2  FDE        0.0648
     61 O          96.5800  103.0300  100.5500 os      3  FDE       -0.3212
     62 C          95.8900  102.6000   99.4400 cc      3  FDE        0.0455
     63 C3         96.7000  102.2700   98.3800 cd      3  FDE       -0.0364
     64 C4         97.8700  102.9400  100.1200 cc      3  FDE        0.0725
     65 C5         98.0200  102.5100   98.8300 cd      3  FDE       -0.0322
     66 C6         99.0100  103.4500  100.9600 c3      3  FDE        0.0457
     67 N          99.9800  102.4000  101.3500 n3      3  FDE       -0.2919
     68 H          98.6000  103.9400  101.8600 h1      3  FDE        0.0503
     69 H1         99.4900  104.2500  100.3800 h1      3  FDE        0.0503
     70 C7         99.4800  101.6500  102.5300 c3      3  FDE        0.0245
     71 C8        101.3600  102.9400  101.4500 c3      3  FDE        0.0245
     72 C9        102.0900  103.0200  100.0800 c3      3  FDE        0.0639
     73 H2        101.9800  102.3000  102.1000 h1      3  FDE        0.0458
     74 H3        101.3500  103.9300  101.9300 h1      3  FDE        0.0458
     75 C1        103.6100  103.1500  100.2700 c3      3  FDE       -0.0377
     76 H4        103.8600  104.0400  100.8500 hc      3  FDE        0.0257
     77 H5        104.1200  103.2200   99.3000 hc      3  FDE        0.0257
     78 H6        104.0100  102.2700  100.7900 hc      3  FDE        0.0257
     79 O1        101.6400  104.1300   99.3100 oh      3  FDE       -0.3921
     80 H7        101.8900  102.0900   99.5300 h1      3  FDE        0.0611
     81 C10       100.3100  100.4100  103.0000 c3      3  FDE        0.0639
     82 H8         98.4500  101.3200  102.3400 h1      3  FDE        0.0458
     83 H9         99.4300  102.3500  103.3700 h1      3  FDE        0.0458
     84 O2        100.1300  100.2700  104.4100 oh      3  FDE       -0.3921
     85 C2         99.9100   99.0600  102.3400 c3      3  FDE       -0.0377
     86 H10       101.3700  100.5800  102.8400 h1      3  FDE        0.0611
     87 H11        98.8200   98.9500  102.4100 hc      3  FDE        0.0257
     88 H12       100.3000   98.2600  102.9700 hc      3  FDE        0.0257
     89 H14        99.1900  100.0900  104.5700 ho      3  FDE        0.2105
     90 H15       102.1100  104.1000   98.4500 ho      3  FDE        0.2105
     91 H16        94.8100  102.5700   99.5300 h4      3  FDE        0.0902
     92 H17        96.3900  101.9200   97.4000 ha      3  FDE        0.0645
     93 H18        98.9400  102.4000   98.2700 ha      3  FDE        0.0648
@<TRIPOS>BOND
     1     1     2    1
     2     2     3    1
     3     2     4    1
     4     2     5    1
     5     3     6    1
     6     3     7    2
     7     6     8    1
     8     8     9    2
     9     7     9    1
    10     8    10    1
    11    10    11    1
    12    10    12    1
    13    10    13    1
    14    11    14    2
    15    14    15    1
    16    11    16    1
    17    16    17    1
    18    15    17    2
    19    17    18    1
    20    18    19    1
    21    18    20    1
    22    18    21    1
    23     1    22    1
    24     1    23    1
    25     7    24    1
    26     9    25    1
    27    14    26    1
    28    15    27    1
    29    28    29    1
    30    29    30    2
    31    28    31    1
    32    31    32    2
    33    30    32    1
    34    31    33    1
    35    33    34    1
    36    33    35    1
    37    33    36    1
    38    34    37    1
    39    34    38    1
    40    38    39    1
    41    38    40    1
    42    38    41    1
    43    39    42    1
    44    42    43    1
    45    42    44    1
    46    42    45    1
    47    39    46    1
    48    39    47    1
    49    37    48    1
    50    37    49    1
    51    37    50    1
    52    48    51    1
    53    48    52    1
    54    48    53    1
    55    52    54    1
    56    52    55    1
    57    51    56    1
    58    46    57    1
    59    29    58    1
    60    30    59    1
    61    32    60    1
    62    19    52    1
    63    61    62    1
    64    62    63    2
    65    61    64    1
    66    64    65    2
    67    63    65    1
    68    64    66    1
    69    66    67    1
    70    66    68    1
    71    66    69    1
    72    67    70    1
    73    67    71    1
    74    71    72    1
    75    71    73    1
    76    71    74    1
    77    72    75    1
    78    75    76    1
    79    75    77    1
    80    75    78    1
    81    72    79    1
    82    72    80    1
    83    70    81    1
    84    70    82    1
    85    70    83    1
    86    81    84    1
    87    81    85    1
    88    81    86    1
    89    85    87    1
    90    85    88    1
    91    84    89    1
    92    79    90    1
    93    62    91    1
    94    63    92    1
    95    65    93    1
    96    19    85    1
