@<TRIPOS>MOLECULE
DFA+FDE+FDE+FDE
   125   129  1  0  0
SMALL
gas

@<TRIPOS>ATOM
      1 N1         96.7400   99.0400   99.6400 n3      1  DFA       -0.3248
      2 C          97.4300  100.2200   99.0700 c3      1  DFA        0.0403
      3 C1         98.9100  100.3300   99.3800 cc      1  DFA        0.0725
      4 H          96.9700  101.1400   99.4600 h1      1  DFA        0.0498
      5 H1         97.3000  100.2500   97.9800 h1      1  DFA        0.0498
      6 O          99.5500  101.5200   99.1500 os      1  DFA       -0.3174
      7 C2         99.7100   99.3600   99.9300 cd      1  DFA       -0.0319
      8 C3        100.8100  101.2400   99.6000 cc      1  DFA        0.0654
      9 C4        100.9800   99.9700  100.0900 cd      1  DFA       -0.0327
     10 C5        101.9000  102.2800   99.5400 c3      1  DFA        0.0418
     11 C6        103.2800  101.6900   99.4300 cc      1  DFA        0.0654
     12 H2        101.8400  102.9200  100.4300 hc      1  DFA        0.0409
     13 H3        101.7200  102.9400   98.6800 hc      1  DFA        0.0409
     14 C7        103.6900  100.8400   98.4400 cd      1  DFA       -0.0327
     15 C8        105.0600  100.6000   98.7000 cd      1  DFA       -0.0319
     16 O1        104.2600  102.0300  100.3300 os      1  DFA       -0.3174
     17 C9        105.3300  101.3300   99.8400 cc      1  DFA        0.0725
     18 C10       106.7000  101.5900  100.3900 c3      1  DFA        0.0403
     19 N2        107.6900  100.5800   99.9500 n3      1  DFA       -0.3248
     20 H4        106.6600  101.6000  101.4900 h1      1  DFA        0.0498
     21 H5        106.9900  102.5900  100.0700 h1      1  DFA        0.0498
     22 H8        107.6400   99.7700  100.5600 hn      1  DFA        0.1188
     23 H10        99.4500   98.3500  100.2100 ha      1  DFA        0.0648
     24 H11       101.8700   99.5200  100.5000 ha      1  DFA        0.0648
     25 H12       103.1000  100.4600   97.6100 ha      1  DFA        0.0648
     26 H13       105.7500  100.0100   98.1100 ha      1  DFA        0.0648
     27 O          89.8900  100.8500  103.0200 os      2  FDE       -0.3212
     28 C          90.2600  101.2600  104.2700 cc      2  FDE        0.0455
     29 C3         91.6100  101.4700  104.4200 cd      2  FDE       -0.0364
     30 C4         91.1000  100.8100  102.3800 cc      2  FDE        0.0725
     31 C5         92.1700  101.1800  103.1500 cd      2  FDE       -0.0322
     32 C6         91.1900  100.5200  100.9000 c3      2  FDE        0.0457
     33 N          92.3100   99.6200  100.5400 n3      2  FDE       -0.2919
     34 H          91.3100  101.5000  100.4100 h1      2  FDE        0.0503
     35 H1         90.2300  100.1100  100.5400 h1      2  FDE        0.0503
     36 C7         92.9600  100.0800   99.2900 c3      2  FDE        0.0245
     37 C8         91.9900   98.1700  100.5500 c3      2  FDE        0.0245
     38 C9         91.2900   97.6400  101.8300 c3      2  FDE        0.0639
     39 H2         92.9200   97.6000  100.4200 h1      2  FDE        0.0458
     40 H3         91.3500   97.9300   99.6900 h1      2  FDE        0.0458
     41 C1         91.5800   96.1400  102.0500 c3      2  FDE       -0.0377
     42 H4         91.1700   95.5400  101.2200 hc      2  FDE        0.0257
     43 H5         91.1200   95.7900  102.9800 hc      2  FDE        0.0257
     44 H6         92.6500   95.9500  102.1100 hc      2  FDE        0.0257
     45 O1         89.8800   97.8200  101.7400 oh      2  FDE       -0.3921
     46 H7         91.6900   98.1900  102.7000 h1      2  FDE        0.0611
     47 C10        94.2700   99.3400   98.8900 c3      2  FDE        0.0639
     48 H8         93.2100  101.1400   99.3900 h1      2  FDE        0.0458
     49 H9         92.2500   99.9900   98.4600 h1      2  FDE        0.0458
     50 O2         94.7600   99.9700   97.7000 oh      2  FDE       -0.3921
     51 C2         95.3300   99.3300  100.0300 c3      2  FDE       -0.0377
     52 H10        94.0100   98.3000   98.6400 h1      2  FDE        0.0611
     53 H11        95.2900  100.2900  100.5600 hc      2  FDE        0.0257
     54 H13        95.0000   98.5700  100.7600 hc      2  FDE        0.0257
     55 H14        95.0100  100.8800   97.9300 ho      2  FDE        0.2105
     56 H15        89.5200   97.7400  102.6400 ho      2  FDE        0.2105
     57 H16        89.4600  101.3800  104.9900 h4      2  FDE        0.0902
     58 H17        92.1300  101.8100  105.3000 ha      2  FDE        0.0645
     59 H18        93.2100  101.2500  102.8600 ha      2  FDE        0.0648
     60 O          94.5800   96.3200  105.3600 os      3  FDE       -0.3212
     61 C          93.8100   97.3000  105.9200 cc      3  FDE        0.0455
     62 C3         93.5300   98.3400  105.0800 cd      3  FDE       -0.0364
     63 C4         94.7900   96.8200  104.1000 cc      3  FDE        0.0725
     64 C5         94.1700   98.0200  103.8500 cd      3  FDE       -0.0322
     65 C6         95.5400   96.0100  103.0800 c3      3  FDE        0.0457
     66 N          96.2900   96.7900  102.0600 n3      3  FDE       -0.2919
     67 H          94.8000   95.3700  102.5800 h1      3  FDE        0.0503
     68 H1         96.2400   95.3300  103.6000 h1      3  FDE        0.0503
     69 C7         96.2900   96.0600  100.7700 c3      3  FDE        0.0245
     70 C8         97.6200   97.3000  102.5000 c3      3  FDE        0.0245
     71 C9         97.6500   98.1300  103.8100 c3      3  FDE        0.0639
     72 H2         98.0000   97.9600  101.7200 h1      3  FDE        0.0458
     73 H3         98.3300   96.4700  102.5900 h1      3  FDE        0.0458
     74 C1         98.8300   99.1300  103.8000 c3      3  FDE       -0.0377
     75 H4         99.7900   98.6100  103.6900 hc      3  FDE        0.0257
     76 H5         98.8600   99.7000  104.7400 hc      3  FDE        0.0257
     77 H6         98.7300   99.8400  102.9700 hc      3  FDE        0.0257
     78 O1         97.8000   97.2700  104.9400 oh      3  FDE       -0.3921
     79 H7         96.7300   98.7200  103.8900 h1      3  FDE        0.0611
     80 C10        97.2800   96.5100   99.6500 c3      3  FDE        0.0639
     81 H8         95.2800   96.0600  100.3500 h1      3  FDE        0.0458
     82 H9         96.5400   95.0100  100.9800 h1      3  FDE        0.0458
     83 O2         97.3700   95.4400   98.7100 oh      3  FDE       -0.3921
     84 C2         96.9300   97.7900   98.8500 c3      3  FDE       -0.0377
     85 H10        98.2800   96.6200  100.1000 h1      3  FDE        0.0611
     86 H11        96.0600   97.5900   98.2300 hc      3  FDE        0.0257
     87 H12        97.7600   97.9500   98.1500 hc      3  FDE        0.0257
     88 H14        98.0600   95.6800   98.0600 ho      3  FDE        0.2105
     89 H15        97.6000   97.7900  105.7400 ho      3  FDE        0.2105
     90 H16        93.5100   97.1400  106.9500 h4      3  FDE        0.0902
     91 H17        92.9400   99.2200  105.2900 ha      3  FDE        0.0645
     92 H18        94.1700   98.6000  102.9400 ha      3  FDE        0.0648
     93 O         107.8200  105.8300   96.7400 os      4  FDE       -0.3212
     94 C         108.7600  106.8000   96.9700 cc      4  FDE        0.0455
     95 C3        110.0500  106.4000   96.7100 cd      4  FDE       -0.0364
     96 C4        108.6000  104.7800   96.3400 cc      4  FDE        0.0725
     97 C5        109.9400  105.0500   96.2800 cd      4  FDE       -0.0322
     98 C6        107.9600  103.4700   95.9500 c3      4  FDE        0.0457
     99 N         108.8700  102.2900   96.0900 n3      4  FDE       -0.2919
    100 H         107.6300  103.5700   94.9100 h1      4  FDE        0.0503
    101 H1        107.0600  103.3300   96.5500 h1      4  FDE        0.0503
    102 C7        108.9200  101.4800   94.8500 c3      4  FDE        0.0245
    103 C8        108.6100  101.5000   97.3200 c3      4  FDE        0.0245
    104 C9        109.3400  102.0000   98.6000 c3      4  FDE        0.0639
    105 H2        108.9400  100.4600   97.1700 h1      4  FDE        0.0458
    106 H3        107.5300  101.4500   97.5000 h1      4  FDE        0.0458
    107 C1        109.0900  101.0400   99.8100 c3      4  FDE       -0.0377
    108 H5        109.4300  101.5100  100.7400 hc      4  FDE        0.0257
    109 H6        109.7200  100.1500   99.6500 hc      4  FDE        0.0257
    110 O1        108.9700  103.3300   98.9500 oh      4  FDE       -0.3921
    111 H7        110.4200  101.9900   98.3900 h1      4  FDE        0.0611
    112 C10       110.1500  100.5400   94.7700 c3      4  FDE        0.0639
    113 H8        108.9700  102.1500   93.9800 h1      4  FDE        0.0458
    114 H9        108.0000  100.8900   94.7600 h1      4  FDE        0.0458
    115 O2        110.0900   99.8000   93.5500 oh      4  FDE       -0.3921
    116 C2        111.4900  101.3200   94.8200 c3      4  FDE       -0.0377
    117 H10       110.1300   99.8300   95.6000 h1      4  FDE        0.0611
    118 H11       111.5400  102.0800   94.0300 hc      4  FDE        0.0257
    119 H12       112.3400  100.6400   94.7000 hc      4  FDE        0.0257
    120 H13       111.6000  101.8300   95.7800 hc      4  FDE        0.0257
    121 H14       110.1500  100.4400   92.8100 ho      4  FDE        0.2105
    122 H15       109.5400  103.6100   99.6900 ho      4  FDE        0.2105
    123 H16       108.3800  107.7500   97.3200 h4      4  FDE        0.0902
    124 H17       110.9500  106.9800   96.8100 ha      4  FDE        0.0645
    125 H18       110.7500  104.3900   95.9800 ha      4  FDE        0.0648
@<TRIPOS>BOND
     1     1     2    1
     2     2     3    1
     3     2     4    1
     4     2     5    1
     5     3     6    1
     6     3     7    2
     7     6     8    1
     8     8     9    2
     9     7     9    1
    10     8    10    1
    11    10    11    1
    12    10    12    1
    13    10    13    1
    14    11    14    2
    15    14    15    1
    16    11    16    1
    17    16    17    1
    18    15    17    2
    19    17    18    1
    20    18    19    1
    21    18    20    1
    22    18    21    1
    23    19    22    1
    24     7    23    1
    25     9    24    1
    26    14    25    1
    27    15    26    1
    28    27    28    1
    29    28    29    2
    30    27    30    1
    31    30    31    2
    32    29    31    1
    33    30    32    1
    34    32    33    1
    35    32    34    1
    36    32    35    1
    37    33    36    1
    38    33    37    1
    39    37    38    1
    40    37    39    1
    41    37    40    1
    42    38    41    1
    43    41    42    1
    44    41    43    1
    45    41    44    1
    46    38    45    1
    47    38    46    1
    48    36    47    1
    49    36    48    1
    50    36    49    1
    51    47    50    1
    52    47    51    1
    53    47    52    1
    54    51    53    1
    55    51    54    1
    56    50    55    1
    57    45    56    1
    58    28    57    1
    59    29    58    1
    60    31    59    1
    61     1    51    1
    62    60    61    1
    63    61    62    2
    64    60    63    1
    65    63    64    2
    66    62    64    1
    67    63    65    1
    68    65    66    1
    69    65    67    1
    70    65    68    1
    71    66    69    1
    72    66    70    1
    73    70    71    1
    74    70    72    1
    75    70    73    1
    76    71    74    1
    77    74    75    1
    78    74    76    1
    79    74    77    1
    80    71    78    1
    81    71    79    1
    82    69    80    1
    83    69    81    1
    84    69    82    1
    85    80    83    1
    86    80    84    1
    87    80    85    1
    88    84    86    1
    89    84    87    1
    90    83    88    1
    91    78    89    1
    92    61    90    1
    93    62    91    1
    94    64    92    1
    95     1    84    1
    96    93    94    1
    97    94    95    2
    98    93    96    1
    99    96    97    2
   100    95    97    1
   101    96    98    1
   102    98    99    1
   103    98   100    1
   104    98   101    1
   105    99   102    1
   106    99   103    1
   107   103   104    1
   108   103   105    1
   109   103   106    1
   110   104   107    1
   111   107   108    1
   112   107   109    1
   113   104   110    1
   114   104   111    1
   115   102   112    1
   116   102   113    1
   117   102   114    1
   118   112   115    1
   119   112   116    1
   120   112   117    1
   121   116   118    1
   122   116   119    1
   123   116   120    1
   124   115   121    1
   125   110   122    1
   126    94   123    1
   127    95   124    1
   128    97   125    1
   129    19   107    1
