@<TRIPOS>MOLECULE
DFA+FDE+FDE
    93    96  1  0  0
SMALL
gas

@<TRIPOS>ATOM
      1 N1         99.0000   99.9100   99.9700 n3      1  DFA       -0.3248
      2 C         100.0200  100.8300  100.5400 c3      1  DFA        0.0403
      3 C1        101.4700  100.4500  100.3700 cc      1  DFA        0.0725
      4 H          99.8200  100.9500  101.6100 h1      1  DFA        0.0498
      5 H1         99.9300  101.8100  100.0900 h1      1  DFA        0.0498
      6 O         102.2300  101.1100   99.4400 os      1  DFA       -0.3174
      7 C2        102.1900   99.6700  101.2400 cd      1  DFA       -0.0319
      8 C3        103.4900  100.7200   99.7900 cc      1  DFA        0.0654
      9 C4        103.5400   99.8500  100.8500 cd      1  DFA       -0.0327
     10 C5        104.6700  101.3600   99.1200 c3      1  DFA        0.0418
     11 C6        106.0000  100.6900   99.3500 cc      1  DFA        0.0654
     12 H2        104.7400  102.4100   99.4500 hc      1  DFA        0.0409
     13 H3        104.4900  101.4100   98.0400 hc      1  DFA        0.0409
     14 C7        106.3300   99.4400   98.8800 cd      1  DFA       -0.0327
     15 C8        107.7000   99.2900   99.2000 cd      1  DFA       -0.0319
     16 O1        107.0300  101.3700   99.9500 os      1  DFA       -0.3174
     17 C9        108.0500  100.4600   99.8200 cc      1  DFA        0.0725
     18 C10       109.4400  100.8200  100.2500 c3      1  DFA        0.0403
     19 N2        110.0700   99.7600  101.0500 n3      1  DFA       -0.3248
     20 H4        109.4100  101.7500  100.8400 h1      1  DFA        0.0498
     21 H5        110.0500  101.0200   99.3600 h1      1  DFA        0.0498
     22 H8        109.5200   99.6100  101.9000 hn      1  DFA        0.1188
     23 H9        111.0000  100.0500  101.3500 hn      1  DFA        0.1188
     24 H10       101.8100   99.1200  102.1000 ha      1  DFA        0.0648
     25 H11       104.4200   99.4400  101.3400 ha      1  DFA        0.0648
     26 H12       105.6900   98.7500   98.3400 ha      1  DFA        0.0648
     27 H13       108.3400   98.4500   98.9600 ha      1  DFA        0.0648
     28 O          94.4400   96.9900   98.9200 os      2  FDE       -0.3212
     29 C          94.0100   96.8900   97.6200 cc      2  FDE        0.0455
     30 C3         94.6400   95.9000   96.9000 cd      2  FDE       -0.0364
     31 C4         95.3900   96.0100   98.9700 cc      2  FDE        0.0725
     32 C5         95.5500   95.3100   97.8000 cd      2  FDE       -0.0322
     33 C6         96.1300   95.7000  100.2400 c3      2  FDE        0.0457
     34 N          97.6100   95.7000  100.0600 n3      2  FDE       -0.2919
     35 H          95.7900   94.7100  100.5700 h1      2  FDE        0.0503
     36 H1         95.8300   96.4100  101.0200 h1      2  FDE        0.0503
     37 C7         98.2700   94.7100  100.9400 c3      2  FDE        0.0245
     38 C8         98.2200   97.0600  100.1300 c3      2  FDE        0.0245
     39 C9         98.5800   97.6800   98.7400 c3      2  FDE        0.0639
     40 H2         99.1500   97.0200  100.7000 h1      2  FDE        0.0458
     41 H3         97.5600   97.7400  100.6800 h1      2  FDE        0.0458
     42 C1         99.4100   98.9900   98.8700 c3      2  FDE       -0.0377
     43 H5         99.4200   99.5200   97.9100 hc      2  FDE        0.0257
     44 H6        100.4400   98.6600   99.0400 hc      2  FDE        0.0257
     45 O1         97.4300   97.9000   97.9300 oh      2  FDE       -0.3921
     46 H7         99.2100   96.9500   98.2200 h1      2  FDE        0.0611
     47 C10        99.6800   94.3200  100.4600 c3      2  FDE        0.0639
     48 H8         97.6700   93.7900  100.9800 h1      2  FDE        0.0458
     49 H9         98.3200   95.1000  101.9700 h1      2  FDE        0.0458
     50 O2        100.2700   93.4200  101.4000 oh      2  FDE       -0.3921
     51 C2         99.6500   93.6400   99.0700 c3      2  FDE       -0.0377
     52 H10       100.3100   95.2100  100.3900 h1      2  FDE        0.0611
     53 H11        99.0000   92.7600   99.0800 hc      2  FDE        0.0257
     54 H12       100.6600   93.3200   98.7800 hc      2  FDE        0.0257
     55 H13        99.2800   94.3300   98.3100 hc      2  FDE        0.0257
     56 H14        99.7200   92.6100  101.4200 ho      2  FDE        0.2105
     57 H15        96.8200   98.4800   98.4100 ho      2  FDE        0.2105
     58 H16        93.2400   97.5900   97.3100 h4      2  FDE        0.0902
     59 H17        94.4700   95.6300   95.8600 ha      2  FDE        0.0645
     60 H18        96.2300   94.4900   97.6100 ha      2  FDE        0.0648
     61 O         101.0600  105.6700  101.0300 os      3  FDE       -0.3212
     62 C         101.6100  105.4400  102.2700 cc      3  FDE        0.0455
     63 C3        101.0200  104.4100  102.9500 cd      3  FDE       -0.0364
     64 C4        100.0800  104.7100  100.9700 cc      3  FDE        0.0725
     65 C5        100.0100  103.9200  102.0900 cd      3  FDE       -0.0322
     66 C6         99.2800  104.5300   99.7000 c3      3  FDE        0.0457
     67 N          98.1400  103.5900   99.8200 n3      3  FDE       -0.2919
     68 H          99.9900  104.1700   98.9500 h1      3  FDE        0.0503
     69 H1         98.9300  105.5100   99.3500 h1      3  FDE        0.0503
     70 C7         98.0300  102.7100   98.6300 c3      3  FDE        0.0245
     71 C8         96.8400  104.2100  100.2000 c3      3  FDE        0.0245
     72 C9         96.8300  105.0400  101.5200 c3      3  FDE        0.0639
     73 H2         96.0900  103.4200  100.3300 h1      3  FDE        0.0458
     74 H3         96.4900  104.8600   99.3900 h1      3  FDE        0.0458
     75 C1         95.4000  105.2000  102.0700 c3      3  FDE       -0.0377
     76 H4         94.7500  105.7100  101.3400 hc      3  FDE        0.0257
     77 H5         95.4000  105.7800  103.0000 hc      3  FDE        0.0257
     78 H6         94.9600  104.2200  102.2900 hc      3  FDE        0.0257
     79 O1         97.3700  106.3400  101.3000 oh      3  FDE       -0.3921
     80 H7         97.4200  104.5100  102.2700 h1      3  FDE        0.0611
     81 C10        97.1800  101.4300   98.8200 c3      3  FDE        0.0639
     82 H8         99.0300  102.3900   98.3100 h1      3  FDE        0.0458
     83 H9         97.6100  103.2900   97.8000 h1      3  FDE        0.0458
     84 O2         97.0900  100.7500   97.5800 oh      3  FDE       -0.3921
     85 C2         97.6100  100.4700   99.9700 c3      3  FDE       -0.0377
     86 H10        96.1600  101.7600   99.0700 h1      3  FDE        0.0611
     87 H12        96.9000   99.6400   99.9800 hc      3  FDE        0.0257
     88 H13        97.4600  100.9900  100.9200 hc      3  FDE        0.0257
     89 H14        97.9100  100.2500   97.4600 ho      3  FDE        0.2105
     90 H15        97.5000  106.7600  102.1700 ho      3  FDE        0.2105
     91 H16       102.4300  106.0900  102.5500 h4      3  FDE        0.0902
     92 H17       101.2700  104.0300  103.9300 ha      3  FDE        0.0645
     93 H18        99.3400  103.0900  102.2700 ha      3  FDE        0.0648
@<TRIPOS>BOND
     1     1     2    1
     2     2     3    1
     3     2     4    1
     4     2     5    1
     5     3     6    1
     6     3     7    2
     7     6     8    1
     8     8     9    2
     9     7     9    1
    10     8    10    1
    11    10    11    1
    12    10    12    1
    13    10    13    1
    14    11    14    2
    15    14    15    1
    16    11    16    1
    17    16    17    1
    18    15    17    2
    19    17    18    1
    20    18    19    1
    21    18    20    1
    22    18    21    1
    23    19    22    1
    24    19    23    1
    25     7    24    1
    26     9    25    1
    27    14    26    1
    28    15    27    1
    29    28    29    1
    30    29    30    2
    31    28    31    1
    32    31    32    2
    33    30    32    1
    34    31    33    1
    35    33    34    1
    36    33    35    1
    37    33    36    1
    38    34    37    1
    39    34    38    1
    40    38    39    1
    41    38    40    1
    42    38    41    1
    43    39    42    1
    44    42    43    1
    45    42    44    1
    46    39    45    1
    47    39    46    1
    48    37    47    1
    49    37    48    1
    50    37    49    1
    51    47    50    1
    52    47    51    1
    53    47    52    1
    54    51    53    1
    55    51    54    1
    56    51    55    1
    57    50    56    1
    58    45    57    1
    59    29    58    1
    60    30    59    1
    61    32    60    1
    62     1    42    1
    63    61    62    1
    64    62    63    2
    65    61    64    1
    66    64    65    2
    67    63    65    1
    68    64    66    1
    69    66    67    1
    70    66    68    1
    71    66    69    1
    72    67    70    1
    73    67    71    1
    74    71    72    1
    75    71    73    1
    76    71    74    1
    77    72    75    1
    78    75    76    1
    79    75    77    1
    80    75    78    1
    81    72    79    1
    82    72    80    1
    83    70    81    1
    84    70    82    1
    85    70    83    1
    86    81    84    1
    87    81    85    1
    88    81    86    1
    89    85    87    1
    90    85    88    1
    91    84    89    1
    92    79    90    1
    93    62    91    1
    94    63    92    1
    95    65    93    1
    96     1    85    1
