@<TRIPOS>MOLECULE
DFA+FDE+FDE+FDE+FDE
   157   162  1  0  0
SMALL
gas

@<TRIPOS>ATOM
      1 N1         94.1100   99.0500   99.5300 n3      1  DFA       -0.3248
      2 C          95.3100   99.9100   99.4300 c3      1  DFA        0.0403
      3 C1         96.5700   99.3500  100.0500 cc      1  DFA        0.0725
      4 H          95.1300  100.8600   99.9500 h1      1  DFA        0.0498
      5 H1         95.5100  100.1600   98.3800 h1      1  DFA        0.0498
      6 O          97.7000  100.1200  100.0900 os      1  DFA       -0.3174
      7 C2         96.6500   98.1700  100.7700 cd      1  DFA       -0.0319
      8 C3         98.5200   99.3500  100.8700 cc      1  DFA        0.0654
      9 C4         97.9600   98.1800  101.3100 cd      1  DFA       -0.0327
     10 C5         99.8300   99.9000  101.3900 c3      1  DFA        0.0418
     11 C6        101.0400   99.5300  100.5800 cc      1  DFA        0.0654
     12 H2         99.9800   99.5700  102.4200 hc      1  DFA        0.0409
     13 H3         99.7600  100.9900  101.4400 hc      1  DFA        0.0409
     14 C7        101.2400   98.3200   99.9500 cd      1  DFA       -0.0327
     15 C8        102.5800   98.3800   99.4800 cd      1  DFA       -0.0319
     16 O1        102.1300  100.3600  100.5600 os      1  DFA       -0.3174
     17 C9        103.0400   99.6000   99.8800 cc      1  DFA        0.0725
     18 C10       104.4600  100.0900   99.7100 c3      1  DFA        0.0403
     19 N2        105.3900   99.5900  100.7600 n3      1  DFA       -0.3248
     20 H4        104.4600  101.1800   99.7000 h1      1  DFA        0.0498
     21 H5        104.8200   99.7600   98.7300 h1      1  DFA        0.0498
     22 H10        95.8800   97.4400  100.9500 ha      1  DFA        0.0648
     23 H11        98.3900   97.4500  101.9900 ha      1  DFA        0.0648
     24 H12       100.5500   97.4900   99.8700 ha      1  DFA        0.0648
     25 H13       103.1300   97.6000   98.9600 ha      1  DFA        0.0648
     26 O          88.8500   95.3400   99.0300 os      2  FDE       -0.3212
     27 C          88.5100   94.9700   97.7500 cc      2  FDE        0.0455
     28 C3         89.5000   94.2800   97.1000 cd      2  FDE       -0.0364
     29 C4         90.1300   94.8600   99.1300 cc      2  FDE        0.0725
     30 C5         90.5800   94.2000   98.0200 cd      2  FDE       -0.0322
     31 C6         90.9100   95.0500  100.4000 c3      2  FDE        0.0457
     32 N          92.3800   94.8900  100.2400 n3      2  FDE       -0.2919
     33 H          90.5200   94.3300  101.1300 h1      2  FDE        0.0503
     34 H1         90.6800   96.0500  100.8100 h1      2  FDE        0.0503
     35 C7         92.9500   93.9400  101.2300 c3      2  FDE        0.0245
     36 C8         93.1200   96.1700  100.1100 c3      2  FDE        0.0245
     37 C9         93.0100   96.8400   98.7100 c3      2  FDE        0.0639
     38 H2         94.1900   95.9800  100.2700 h1      2  FDE        0.0458
     39 H3         92.8100   96.8700  100.8900 h1      2  FDE        0.0458
     40 C1         94.0800   97.9500   98.5200 c3      2  FDE       -0.0377
     41 H5         93.9600   98.3800   97.5100 hc      2  FDE        0.0257
     42 H6         95.0600   97.4600   98.5200 hc      2  FDE        0.0257
     43 O1         91.7000   97.3400   98.4700 oh      2  FDE       -0.3921
     44 H7         93.2200   96.0700   97.9600 h1      2  FDE        0.0611
     45 C10        94.3300   93.3600  100.8200 c3      2  FDE        0.0639
     46 H8         92.2700   93.0900  101.3400 h1      2  FDE        0.0458
     47 H9         93.0300   94.4300  102.2100 h1      2  FDE        0.0458
     48 O2         94.7600   92.4400  101.8200 oh      2  FDE       -0.3921
     49 C2         94.2900   92.6500   99.4500 c3      2  FDE       -0.0377
     50 H10        95.0600   94.1700  100.7700 h1      2  FDE        0.0611
     51 H11        93.5300   91.8600   99.4400 hc      2  FDE        0.0257
     52 H12        95.2600   92.1900   99.2300 hc      2  FDE        0.0257
     53 H13        94.0600   93.3600   98.6500 hc      2  FDE        0.0257
     54 H14        94.1300   91.6900  101.8200 ho      2  FDE        0.2105
     55 H15        91.7500   98.0000   97.7500 ho      2  FDE        0.2105
     56 H16        87.5200   95.2500   97.4200 h4      2  FDE        0.0902
     57 H17        89.4700   93.8800   96.0900 ha      2  FDE        0.0645
     58 H18        91.5400   93.7300   97.8600 ha      2  FDE        0.0648
     59 O          96.1300  104.7600  101.2700 os      3  FDE       -0.3212
     60 C          96.7700  104.3200  102.4000 cc      3  FDE        0.0455
     61 C3         96.2900  103.1200  102.8800 cd      3  FDE       -0.0364
     62 C4         95.2100  103.7600  101.0600 cc      3  FDE        0.0725
     63 C5         95.2600  102.7400  101.9800 cd      3  FDE       -0.0322
     64 C6         94.3500  103.7800   99.8200 c3      3  FDE        0.0457
     65 N          93.2100  102.8300   99.8800 n3      3  FDE       -0.2919
     66 H          95.0100  103.5400   98.9900 h1      3  FDE        0.0503
     67 H1         93.9900  104.8000   99.6400 h1      3  FDE        0.0503
     68 C7         93.0300  102.0900   98.6100 c3      3  FDE        0.0245
     69 C8         91.9300  103.3900  100.4100 c3      3  FDE        0.0245
     70 C9         92.0000  104.0500  101.8100 c3      3  FDE        0.0639
     71 H2         91.1900  102.5800  100.4700 h1      3  FDE        0.0458
     72 H3         91.5300  104.1200   99.7000 h1      3  FDE        0.0458
     73 C1         90.6100  104.1000  102.4700 c3      3  FDE       -0.0377
     74 H4         89.9100  104.6800  101.8500 hc      3  FDE        0.0257
     75 H5         90.6700  104.5800  103.4600 hc      3  FDE        0.0257
     76 H6         90.2000  103.0900  102.6000 hc      3  FDE        0.0257
     77 O1         92.5000  105.3800  101.7100 oh      3  FDE       -0.3921
     78 H7         92.6600  103.4500  102.4500 h1      3  FDE        0.0611
     79 C10        92.2600  100.7500   98.7600 c3      3  FDE        0.0639
     80 H8         94.0100  101.8600   98.1700 h1      3  FDE        0.0458
     81 H9         92.5100  102.7200   97.8800 h1      3  FDE        0.0458
     82 O2         92.1800  100.1300   97.4800 oh      3  FDE       -0.3921
     83 C2         92.8500   99.7900   99.8400 c3      3  FDE       -0.0377
     84 H10        91.2400  100.9900   99.0700 h1      3  FDE        0.0611
     85 H12        92.0700   99.0700  100.1100 hc      3  FDE        0.0257
     86 H13        93.0100  100.3700  100.7600 hc      3  FDE        0.0257
     87 H14        93.0900   99.9500   97.1900 ho      3  FDE        0.2105
     88 H15        92.6900  105.7000  102.6100 ho      3  FDE        0.2105
     89 H16        97.5600  104.9500  102.7800 h4      3  FDE        0.0902
     90 H17        96.6400  102.5700  103.7400 ha      3  FDE        0.0645
     91 H18        94.6600  101.8400  102.0100 ha      3  FDE        0.0648
     92 O         111.7400  102.2000   97.5000 os      4  FDE       -0.3212
     93 C         111.1800  102.7900   96.3900 cc      4  FDE        0.0455
     94 C3        109.8300  102.5600   96.2700 cd      4  FDE       -0.0364
     95 C4        110.6600  101.5700   98.0600 cc      4  FDE        0.0725
     96 C5        109.4800  101.7600   97.3800 cd      4  FDE       -0.0322
     97 C6        110.8000  100.8300   99.3600 c3      4  FDE        0.0457
     98 N         109.7700   99.7800   99.5500 n3      4  FDE       -0.2919
     99 H         110.7200  101.5900  100.1500 h1      4  FDE        0.0503
    100 H1        111.8000  100.4100   99.4500 h1      4  FDE        0.0503
    101 C7        109.3100   99.7100  100.9600 c3      4  FDE        0.0245
    102 C8        110.1200   98.4400   99.0000 c3      4  FDE        0.0245
    103 C9        110.5900   98.4000   97.5300 c3      4  FDE        0.0639
    104 H2        109.2400   97.7900   99.0800 h1      4  FDE        0.0458
    105 H3        110.9000   97.9900   99.6300 h1      4  FDE        0.0458
    106 C1        110.4300   96.9900   96.9300 c3      4  FDE       -0.0377
    107 H4        111.0100   96.2500   97.5000 hc      4  FDE        0.0257
    108 H5        110.7700   96.9600   95.8900 hc      4  FDE        0.0257
    109 H6        109.3700   96.6800   96.9500 hc      4  FDE        0.0257
    110 O1        111.9700   98.7500   97.4300 oh      4  FDE       -0.3921
    111 H7        109.9800   99.0900   96.9400 h1      4  FDE        0.0611
    112 C10       107.9100   99.0700  101.1600 c3      4  FDE        0.0639
    113 H8        109.2600  100.7100  101.3900 h1      4  FDE        0.0458
    114 H9        110.0500   99.1500  101.5500 h1      4  FDE        0.0458
    115 O2        107.7300   98.9200  102.5600 oh      4  FDE       -0.3921
    116 C2        106.8100   99.9300  100.4700 c3      4  FDE       -0.0377
    117 H10       107.9000   98.0700  100.7100 h1      4  FDE        0.0611
    118 H11       106.9900  100.9900  100.7000 hc      4  FDE        0.0257
    119 H13       106.9700   99.8300   99.3900 hc      4  FDE        0.0257
    120 H14       107.5700   99.8000  102.9500 ho      4  FDE        0.2105
    121 H15       112.1800   98.9200   96.5000 ho      4  FDE        0.2105
    122 H16       111.8500  103.3600   95.7600 h4      4  FDE        0.0902
    123 H17       109.1700  102.9300   95.4900 ha      4  FDE        0.0645
    124 H18       108.4900  101.3900   97.6400 ha      4  FDE        0.0648
    125 O         101.4700  103.6800  100.8500 os      5  FDE       -0.3212
    126 C         100.6300  103.2100   99.8700 cc      5  FDE        0.0455
    127 C3        101.2600  102.8800   98.7000 cd      5  FDE       -0.0364
    128 C4        102.6800  103.6100  100.2100 cc      5  FDE        0.0725
    129 C5        102.6300  103.1600   98.9200 cd      5  FDE       -0.0322
    130 C6        103.9300  104.1700  100.8500 c3      5  FDE        0.0457
    131 N         104.9200  103.1400  101.2300 n3      5  FDE       -0.2919
    132 H         103.6400  104.7600  101.7300 h1      5  FDE        0.0503
    133 H1        104.3500  104.8800  100.1300 h1      5  FDE        0.0503
    134 C7        104.4500  102.3800  102.4200 c3      5  FDE        0.0245
    135 C8        106.2900  103.7100  101.3500 c3      5  FDE        0.0245
    136 C9        107.0100  103.8500   99.9800 c3      5  FDE        0.0639
    137 H2        106.9200  103.0700  101.9700 h1      5  FDE        0.0458
    138 H3        106.2600  104.6900  101.8500 h1      5  FDE        0.0458
    139 C1        108.5400  103.9200  100.1600 c3      5  FDE       -0.0377
    140 H4        108.8200  104.7800  100.7800 hc      5  FDE        0.0257
    141 H5        109.0400  104.0300   99.1900 hc      5  FDE        0.0257
    142 H6        108.9100  103.0200  100.6400 hc      5  FDE        0.0257
    143 O1        106.5900  105.0200   99.2800 oh      5  FDE       -0.3921
    144 H7        106.7800  102.9600   99.3800 h1      5  FDE        0.0611
    145 C10       105.2900  101.1400  102.8600 c3      5  FDE        0.0639
    146 H8        103.4200  102.0400  102.2500 h1      5  FDE        0.0458
    147 H9        104.4100  103.0700  103.2700 h1      5  FDE        0.0458
    148 O2        105.1200  100.9600  104.2600 oh      5  FDE       -0.3921
    149 C2        104.9100   99.8000  102.1700 c3      5  FDE       -0.0377
    150 H10       106.3500  101.3300  102.7000 h1      5  FDE        0.0611
    151 H11       103.8300   99.6600  102.2400 hc      5  FDE        0.0257
    152 H12       105.3300   98.9900  102.7800 hc      5  FDE        0.0257
    153 H14       104.1700  100.7700  104.4200 ho      5  FDE        0.2105
    154 H15       107.0400  105.0200   98.4100 ho      5  FDE        0.2105
    155 H16        99.5700  103.1600  100.1300 h4      5  FDE        0.0902
    156 H17       100.8100  102.5100   97.7900 ha      5  FDE        0.0645
    157 H18       103.4500  103.0600   98.2200 ha      5  FDE        0.0648
@<TRIPOS>BOND
     1     1     2    1
     2     2     3    1
     3     2     4    1
     4     2     5    1
     5     3     6    1
     6     3     7    2
     7     6     8    1
     8     8     9    2
     9     7     9    1
    10     8    10    1
    11    10    11    1
    12    10    12    1
    13    10    13    1
    14    11    14    2
    15    14    15    1
    16    11    16    1
    17    16    17    1
    18    15    17    2
    19    17    18    1
    20    18    19    1
    21    18    20    1
    22    18    21    1
    23     7    22    1
    24     9    23    1
    25    14    24    1
    26    15    25    1
    27    26    27    1
    28    27    28    2
    29    26    29    1
    30    29    30    2
    31    28    30    1
    32    29    31    1
    33    31    32    1
    34    31    33    1
    35    31    34    1
    36    32    35    1
    37    32    36    1
    38    36    37    1
    39    36    38    1
    40    36    39    1
    41    37    40    1
    42    40    41    1
    43    40    42    1
    44    37    43    1
    45    37    44    1
    46    35    45    1
    47    35    46    1
    48    35    47    1
    49    45    48    1
    50    45    49    1
    51    45    50    1
    52    49    51    1
    53    49    52    1
    54    49    53    1
    55    48    54    1
    56    43    55    1
    57    27    56    1
    58    28    57    1
    59    30    58    1
    60     1    40    1
    61    59    60    1
    62    60    61    2
    63    59    62    1
    64    62    63    2
    65    61    63    1
    66    62    64    1
    67    64    65    1
    68    64    66    1
    69    64    67    1
    70    65    68    1
    71    65    69    1
    72    69    70    1
    73    69    71    1
    74    69    72    1
    75    70    73    1
    76    73    74    1
    77    73    75    1
    78    73    76    1
    79    70    77    1
    80    70    78    1
    81    68    79    1
    82    68    80    1
    83    68    81    1
    84    79    82    1
    85    79    83    1
    86    79    84    1
    87    83    85    1
    88    83    86    1
    89    82    87    1
    90    77    88    1
    91    60    89    1
    92    61    90    1
    93    63    91    1
    94     1    83    1
    95    92    93    1
    96    93    94    2
    97    92    95    1
    98    95    96    2
    99    94    96    1
   100    95    97    1
   101    97    98    1
   102    97    99    1
   103    97   100    1
   104    98   101    1
   105    98   102    1
   106   102   103    1
   107   102   104    1
   108   102   105    1
   109   103   106    1
   110   106   107    1
   111   106   108    1
   112   106   109    1
   113   103   110    1
   114   103   111    1
   115   101   112    1
   116   101   113    1
   117   101   114    1
   118   112   115    1
   119   112   116    1
   120   112   117    1
   121   116   118    1
   122   116   119    1
   123   115   120    1
   124   110   121    1
   125    93   122    1
   126    94   123    1
   127    96   124    1
   128    19   116    1
   129   125   126    1
   130   126   127    2
   131   125   128    1
   132   128   129    2
   133   127   129    1
   134   128   130    1
   135   130   131    1
   136   130   132    1
   137   130   133    1
   138   131   134    1
   139   131   135    1
   140   135   136    1
   141   135   137    1
   142   135   138    1
   143   136   139    1
   144   139   140    1
   145   139   141    1
   146   139   142    1
   147   136   143    1
   148   136   144    1
   149   134   145    1
   150   134   146    1
   151   134   147    1
   152   145   148    1
   153   145   149    1
   154   145   150    1
   155   149   151    1
   156   149   152    1
   157   148   153    1
   158   143   154    1
   159   126   155    1
   160   127   156    1
   161   129   157    1
   162    19   149    1
