@<TRIPOS>MOLECULE
DFA+FDE+FDE
    93    96  1  0  0
SMALL
gas

@<TRIPOS>ATOM
      1 N1         93.3500  100.6800  100.9000 n3      1  DFA       -0.3248
      2 C          94.2400  101.8500  100.8500 c3      1  DFA        0.0403
      3 C1         95.7100  101.5200  100.8400 cc      1  DFA        0.0725
      4 H          94.0400  102.4700  101.7300 h1      1  DFA        0.0498
      5 H1         94.0000  102.4600   99.9700 h1      1  DFA        0.0498
      6 O          96.5900  102.3900  100.2500 os      1  DFA       -0.3174
      7 C2         96.3000  100.5700  101.6400 cd      1  DFA       -0.0319
      8 C3         97.7900  101.9300  100.7300 cc      1  DFA        0.0654
      9 C4         97.6900  100.8500  101.5700 cd      1  DFA       -0.0327
     10 C5         99.0200  102.7900  100.5400 c3      1  DFA        0.0418
     11 C6        100.3400  102.0700  100.3900 cc      1  DFA        0.0654
     12 H2         99.0900  103.4700  101.3900 hc      1  DFA        0.0409
     13 H3         98.8700  103.4300   99.6700 hc      1  DFA        0.0409
     14 C7        100.5200  100.7800   99.9400 cd      1  DFA       -0.0327
     15 C8        101.9300  100.6400   99.8100 cd      1  DFA       -0.0319
     16 O1        101.5000  102.7900  100.5500 os      1  DFA       -0.3174
     17 C9        102.4400  101.8600  100.1900 cc      1  DFA        0.0725
     18 C10       103.8700  102.2800  100.0200 c3      1  DFA        0.0403
     19 N2        104.7800  101.5600  100.9300 n3      1  DFA       -0.3248
     20 H4        103.9400  103.3500  100.2200 h1      1  DFA        0.0498
     21 H5        104.1800  102.1100   98.9800 h1      1  DFA        0.0498
     22 H6         92.4100  101.0000  101.1200 hn      1  DFA        0.1188
     23 H8        104.4600  101.6700  101.8900 hn      1  DFA        0.1188
     24 H10        95.8100   99.8400  102.2700 ha      1  DFA        0.0648
     25 H11        98.4800  100.3700  102.1300 ha      1  DFA        0.0648
     26 H12        99.7600  100.0500   99.6900 ha      1  DFA        0.0648
     27 H13       102.4700   99.7800   99.4400 ha      1  DFA        0.0648
     28 O          88.3000   97.5400   99.2900 os      2  FDE       -0.3212
     29 C          88.0400   97.4700   97.9500 cc      2  FDE        0.0455
     30 C3         89.0100   96.8000   97.2400 cd      2  FDE       -0.0364
     31 C4         89.5000   96.8900   99.3900 cc      2  FDE        0.0725
     32 C5         89.9700   96.4000   98.2000 cd      2  FDE       -0.0322
     33 C6         90.1400   96.6700  100.7300 c3      2  FDE        0.0457
     34 N          91.6200   96.5200  100.6600 n3      2  FDE       -0.2919
     35 H          89.6900   95.7500  101.1400 h1      2  FDE        0.0503
     36 H1         89.8700   97.4800  101.4100 h1      2  FDE        0.0503
     37 C7         92.1100   95.4500  101.5600 c3      2  FDE        0.0245
     38 C8         92.3800   97.8000  100.8000 c3      2  FDE        0.0245
     39 C9         92.1100   98.8600   99.7000 c3      2  FDE        0.0639
     40 H2         93.4500   97.5800  100.7600 h1      2  FDE        0.0458
     41 H3         92.1800   98.2400  101.7800 h1      2  FDE        0.0458
     42 C1         93.2600   99.9100   99.6400 c3      2  FDE       -0.0377
     43 H5         93.0600  100.5900   98.8100 hc      2  FDE        0.0257
     44 H6         94.2100   99.4100   99.4400 hc      2  FDE        0.0257
     45 O1         90.8900   99.5500   99.9500 oh      2  FDE       -0.3921
     46 H7         92.0700   98.3500   98.7300 h1      2  FDE        0.0611
     47 C10        93.5400   94.9500  101.2500 c3      2  FDE        0.0639
     48 H8         91.4400   94.5800  101.4900 h1      2  FDE        0.0458
     49 H9         92.0700   95.8000  102.6100 h1      2  FDE        0.0458
     50 O2         93.8800   93.9100  102.1600 oh      2  FDE       -0.3921
     51 C2         93.6700   94.4200   99.8000 c3      2  FDE       -0.0377
     52 H10        94.2500   95.7700  101.3900 h1      2  FDE        0.0611
     53 H11        92.9500   93.6200   99.6100 hc      2  FDE        0.0257
     54 H12        94.6800   94.0200   99.6300 hc      2  FDE        0.0257
     55 H13        93.5000   95.2300   99.0800 hc      2  FDE        0.0257
     56 H14        93.2600   93.1700  102.0100 ho      2  FDE        0.2105
     57 H15        90.6400  100.0400   99.1400 ho      2  FDE        0.2105
     58 H16        87.1300   97.9300   97.6100 h4      2  FDE        0.0902
     59 H17        89.0200   96.6000   96.1700 ha      2  FDE        0.0645
     60 H18        90.8800   95.8300   98.0200 ha      2  FDE        0.0648
     61 O         111.3000  104.1500   98.3000 os      3  FDE       -0.3212
     62 C         110.8300  104.6400   97.1100 cc      3  FDE        0.0455
     63 C3        109.4900  104.4200   96.9200 cd      3  FDE       -0.0364
     64 C4        110.1700  103.5900   98.8400 cc      3  FDE        0.0725
     65 C5        109.0500  103.7300   98.0700 cd      3  FDE       -0.0322
     66 C6        110.2100  102.9700  100.2200 c3      3  FDE        0.0457
     67 N         109.1700  101.9200  100.4100 n3      3  FDE       -0.2919
     68 H         110.0600  103.7900  100.9300 h1      3  FDE        0.0503
     69 H1        111.2100  102.5600  100.4100 h1      3  FDE        0.0503
     70 C7        108.5500  101.9900  101.7600 c3      3  FDE        0.0245
     71 C8        109.5800  100.5400  100.0300 c3      3  FDE        0.0245
     72 C9        110.0900  100.3600   98.5800 c3      3  FDE        0.0639
     73 H2        108.7200   99.8700  100.1600 h1      3  FDE        0.0458
     74 H3        110.3600  100.1800  100.7200 h1      3  FDE        0.0458
     75 C1        109.9500   98.9000   98.1200 c3      3  FDE       -0.0377
     76 H4        110.5300   98.2300   98.7600 hc      3  FDE        0.0257
     77 H5        110.3000   98.7800   97.0800 hc      3  FDE        0.0257
     78 H6        108.9000   98.5700   98.1500 hc      3  FDE        0.0257
     79 O1        111.4600  100.7300   98.4800 oh      3  FDE       -0.3921
     80 H7        109.4800  100.9900   97.9100 h1      3  FDE        0.0611
     81 C10       107.1300  101.3600  101.8200 c3      3  FDE        0.0639
     82 H8        108.4500  103.0300  102.0600 h1      3  FDE        0.0458
     83 H9        109.2000  101.5000  102.4900 h1      3  FDE        0.0458
     84 O2        106.6400  101.4700  103.1600 oh      3  FDE       -0.3921
     85 C2        106.1700  102.0600  100.8400 c3      3  FDE       -0.0377
     86 H10       107.1900  100.3000  101.5600 h1      3  FDE        0.0611
     87 H11       106.1800  103.1400  101.0600 hc      3  FDE        0.0257
     88 H13       106.5300  101.9300   99.8200 hc      3  FDE        0.0257
     89 H14       106.5400  102.4100  103.3600 ho      3  FDE        0.2105
     90 H15       111.6800  100.8200   97.5300 ho      3  FDE        0.2105
     91 H16       111.5500  105.1500   96.4800 h4      3  FDE        0.0902
     92 H17       108.8800  104.7200   96.0700 ha      3  FDE        0.0645
     93 H18       108.0400  103.3900   98.2900 ha      3  FDE        0.0648
@<TRIPOS>BOND
     1     1     2    1
     2     2     3    1
     3     2     4    1
     4     2     5    1
     5     3     6    1
     6     3     7    2
     7     6     8    1
     8     8     9    2
     9     7     9    1
    10     8    10    1
    11    10    11    1
    12    10    12    1
    13    10    13    1
    14    11    14    2
    15    14    15    1
    16    11    16    1
    17    16    17    1
    18    15    17    2
    19    17    18    1
    20    18    19    1
    21    18    20    1
    22    18    21    1
    23     1    22    1
    24    19    23    1
    25     7    24    1
    26     9    25    1
    27    14    26    1
    28    15    27    1
    29    28    29    1
    30    29    30    2
    31    28    31    1
    32    31    32    2
    33    30    32    1
    34    31    33    1
    35    33    34    1
    36    33    35    1
    37    33    36    1
    38    34    37    1
    39    34    38    1
    40    38    39    1
    41    38    40    1
    42    38    41    1
    43    39    42    1
    44    42    43    1
    45    42    44    1
    46    39    45    1
    47    39    46    1
    48    37    47    1
    49    37    48    1
    50    37    49    1
    51    47    50    1
    52    47    51    1
    53    47    52    1
    54    51    53    1
    55    51    54    1
    56    51    55    1
    57    50    56    1
    58    45    57    1
    59    29    58    1
    60    30    59    1
    61    32    60    1
    62     1    42    1
    63    61    62    1
    64    62    63    2
    65    61    64    1
    66    64    65    2
    67    63    65    1
    68    64    66    1
    69    66    67    1
    70    66    68    1
    71    66    69    1
    72    67    70    1
    73    67    71    1
    74    71    72    1
    75    71    73    1
    76    71    74    1
    77    72    75    1
    78    75    76    1
    79    75    77    1
    80    75    78    1
    81    72    79    1
    82    72    80    1
    83    70    81    1
    84    70    82    1
    85    70    83    1
    86    81    84    1
    87    81    85    1
    88    81    86    1
    89    85    87    1
    90    85    88    1
    91    84    89    1
    92    79    90    1
    93    62    91    1
    94    63    92    1
    95    65    93    1
    96    19    85    1
