@<TRIPOS>MOLECULE
DFA+FDE
    61    63  2  0  0
SMALL
gas

@<TRIPOS>ATOM
      1 N1        103.2400   61.7100   42.2800 n3      1  DFA       -0.3248
      2 C         104.0900   62.9100   42.2500 c3      1  DFA        0.0403
      3 C1        105.5700   62.6300   42.1700 cc      1  DFA        0.0725
      4 H         103.9100   63.4800   43.1700 h1      1  DFA        0.0498
      5 H1        103.7900   63.5500   41.4200 h1      1  DFA        0.0498
      6 O         106.3800   63.5000   41.4900 os      1  DFA       -0.3174
      7 C2        106.2300   61.6900   42.9200 cd      1  DFA       -0.0319
      8 C3        107.6200   63.0500   41.8700 cc      1  DFA        0.0654
      9 C4        107.6000   61.9700   42.7200 cd      1  DFA       -0.0327
     10 C5        108.8400   63.8500   41.5000 c3      1  DFA        0.0418
     11 C6        110.1400   63.0800   41.4600 cc      1  DFA        0.0654
     12 H2        108.9400   64.6800   42.2100 hc      1  DFA        0.0409
     13 H3        108.6800   64.3200   40.5200 hc      1  DFA        0.0409
     14 C7        110.3300   61.9000   40.7900 cd      1  DFA       -0.0327
     15 C8        111.7200   61.6400   40.9000 cd      1  DFA       -0.0319
     16 O1        111.2800   63.6300   42.0000 os      1  DFA       -0.3174
     17 C9        112.2100   62.7000   41.6200 cc      1  DFA        0.0725
     18 C10       113.6700   62.9300   41.9100 c3      1  DFA        0.0403
     19 N2        114.3300   61.7400   42.4600 n3      1  DFA       -0.3248
     20 H4        113.7700   63.7600   42.6100 h1      1  DFA        0.0498
     21 H5        114.1700   63.2200   40.9700 h1      1  DFA        0.0498
     22 H6        102.2900   61.9900   42.5200 hn      1  DFA        0.1188
     23 H8        113.8900   61.5000   43.3500 hn      1  DFA        0.1188
     24 H9        115.3000   61.9500   42.6600 hn      1  DFA        0.1188
     25 H10       105.8000   60.9500   43.5800 ha      1  DFA        0.0648
     26 H11       108.4500   61.4800   43.1900 ha      1  DFA        0.0648
     27 H12       109.5900   61.3100   40.2600 ha      1  DFA        0.0648
     28 H13       112.2700   60.8100   40.4800 ha      1  DFA        0.0648
     29 O          98.2600   58.6500   40.5100 os      2  FDE       -0.3212
     30 C          98.0200   58.5800   39.1600 cc      2  FDE        0.0455
     31 C3         98.9700   57.8600   38.4700 cd      2  FDE       -0.0364
     32 C4         99.4200   57.9400   40.6300 cc      2  FDE        0.0725
     33 C5         99.9000   57.4200   39.4500 cd      2  FDE       -0.0322
     34 C6        100.0400   57.7000   41.9800 c3      2  FDE        0.0457
     35 N         101.5200   57.5500   41.9400 n3      2  FDE       -0.2919
     36 H          99.5800   56.7800   42.3700 h1      2  FDE        0.0503
     37 H1         99.7600   58.5100   42.6700 h1      2  FDE        0.0503
     38 C7        101.9900   56.4600   42.8300 c3      2  FDE        0.0245
     39 C8        102.2800   58.8200   42.1100 c3      2  FDE        0.0245
     40 C9        102.0200   59.9200   41.0400 c3      2  FDE        0.0639
     41 H2        103.3500   58.6000   42.0700 h1      2  FDE        0.0458
     42 H3        102.0800   59.2500   43.1000 h1      2  FDE        0.0458
     43 C1        103.1600   60.9700   41.0100 c3      2  FDE       -0.0377
     44 H5        102.9600   61.6700   40.1900 hc      2  FDE        0.0257
     45 H6        104.1200   60.4800   40.8000 hc      2  FDE        0.0257
     46 O1        100.7900   60.6000   41.2900 oh      2  FDE       -0.3921
     47 H7        101.9800   59.4300   40.0500 h1      2  FDE        0.0611
     48 C10       103.4200   55.9600   42.5300 c3      2  FDE        0.0639
     49 H8        101.3200   55.6000   42.7300 h1      2  FDE        0.0458
     50 H9        101.9300   56.8000   43.8800 h1      2  FDE        0.0458
     51 O2        103.7400   54.9000   43.4300 oh      2  FDE       -0.3921
     52 C2        103.5800   55.4600   41.0800 c3      2  FDE       -0.0377
     53 H10       104.1400   56.7800   42.7000 h1      2  FDE        0.0611
     54 H11       102.8500   54.6700   40.8600 hc      2  FDE        0.0257
     55 H12       104.5800   55.0600   40.9200 hc      2  FDE        0.0257
     56 H13       103.4200   56.2800   40.3700 hc      2  FDE        0.0257
     57 H14       103.1200   54.1700   43.2500 ho      2  FDE        0.2105
     58 H15       100.5400   61.0800   40.4900 ho      2  FDE        0.2105
     59 H16        97.1300   59.0800   38.8000 h4      2  FDE        0.0902
     60 H17        98.9900   57.6500   37.4100 ha      2  FDE        0.0645
     61 H18       100.7800   56.8200   39.2900 ha      2  FDE        0.0648
@<TRIPOS>BOND
     1     1     2    1
     2     2     3    1
     3     2     4    1
     4     2     5    1
     5     3     6    1
     6     3     7    2
     7     6     8    1
     8     8     9    2
     9     7     9    1
    10     8    10    1
    11    10    11    1
    12    10    12    1
    13    10    13    1
    14    11    14    2
    15    14    15    1
    16    11    16    1
    17    16    17    1
    18    15    17    2
    19    17    18    1
    20    18    19    1
    21    18    20    1
    22    18    21    1
    23     1    22    1
    24    19    23    1
    25    19    24    1
    26     7    25    1
    27     9    26    1
    28    14    27    1
    29    15    28    1
    30    29    30    1
    31    30    31    2
    32    29    32    1
    33    32    33    2
    34    31    33    1
    35    32    34    1
    36    34    35    1
    37    34    36    1
    38    34    37    1
    39    35    38    1
    40    35    39    1
    41    39    40    1
    42    39    41    1
    43    39    42    1
    44    40    43    1
    45    43    44    1
    46    43    45    1
    47    40    46    1
    48    40    47    1
    49    38    48    1
    50    38    49    1
    51    38    50    1
    52    48    51    1
    53    48    52    1
    54    48    53    1
    55    52    54    1
    56    52    55    1
    57    52    56    1
    58    51    57    1
    59    46    58    1
    60    30    59    1
    61    31    60    1
    62    33    61    1
    63     1    43    1
@<TRIPOS>SUBSTRUCTURE
     1 DFA          1 RESIDUE
     2 FDE          1 RESIDUE