@<TRIPOS>MOLECULE
DFA+FDE+FDE+FDE
   125   129  1  0  0
SMALL
gas

@<TRIPOS>ATOM
      1 N1         92.8000   99.8000  100.7700 n3      1  DFA       -0.3248
      2 C          93.6800  100.9800  100.8600 c3      1  DFA        0.0403
      3 C1         95.1300  100.6900  100.5400 cc      1  DFA        0.0725
      4 H          93.6300  101.3800  101.8800 h1      1  DFA        0.0498
      5 H1         93.3200  101.7600  100.1800 h1      1  DFA        0.0498
      6 O          95.8100  101.4800   99.6500 os      1  DFA       -0.3174
      7 C2         95.8900   99.7500  101.1800 cd      1  DFA       -0.0319
      8 C3         97.0800  100.9800   99.7800 cc      1  DFA        0.0654
      9 C4         97.2000   99.9400  100.6700 cd      1  DFA       -0.0327
     10 C5         98.1900  101.6100   98.9800 c3      1  DFA        0.0418
     11 C6         99.5900  101.1600   99.3300 cc      1  DFA        0.0654
     12 H2         98.1300  102.7000   99.1000 hc      1  DFA        0.0409
     13 H3         98.0200  101.4200   97.9200 hc      1  DFA        0.0409
     14 C7        100.1800  100.0200   98.8500 cd      1  DFA       -0.0327
     15 C8        101.5600  100.1800   99.1300 cd      1  DFA       -0.0319
     16 O1        100.4600  102.0400   99.9300 os      1  DFA       -0.3174
     17 C9        101.6500  101.3900   99.7700 cc      1  DFA        0.0725
     18 C10       102.9400  102.1600   99.9800 c3      1  DFA        0.0403
     19 N2        104.1700  101.3300  100.0500 n3      1  DFA       -0.3248
     20 H4        102.8400  102.7700  100.8900 h1      1  DFA        0.0498
     21 H5        102.9800  102.8500   99.1400 h1      1  DFA        0.0498
     22 H6         91.8800  100.0600  101.1100 hn      1  DFA        0.1188
     23 H10        95.5800   99.0400  101.9400 ha      1  DFA        0.0648
     24 H11        98.1000   99.4000  100.9500 ha      1  DFA        0.0648
     25 H12        99.7100   99.2400   98.2600 ha      1  DFA        0.0648
     26 H13       102.3700   99.5300   98.8100 ha      1  DFA        0.0648
     27 O          87.9800   96.9400   98.4800 os      2  FDE       -0.3212
     28 C          87.8000   96.9400   97.1200 cc      2  FDE        0.0455
     29 C3         88.7400   96.2100   96.4400 cd      2  FDE       -0.0364
     30 C4         89.0900   96.1600   98.6100 cc      2  FDE        0.0725
     31 C5         89.5900   95.6700   97.4300 cd      2  FDE       -0.0322
     32 C6         89.6300   95.8100   99.9800 c3      2  FDE        0.0457
     33 N          91.1100   95.7100  100.0100 n3      2  FDE       -0.2919
     34 H          89.1800   94.8400  100.2500 h1      2  FDE        0.0503
     35 H1         89.2800   96.5400  100.7200 h1      2  FDE        0.0503
     36 C7         91.5700   94.5800  100.8500 c3      2  FDE        0.0245
     37 C8         91.8300   96.9900  100.3100 c3      2  FDE        0.0245
     38 C9         91.5100   98.1800   99.3700 c3      2  FDE        0.0639
     39 H2         92.9100   96.8100  100.2400 h1      2  FDE        0.0458
     40 H3         91.6200   97.2900  101.3400 h1      2  FDE        0.0458
     41 C1         92.6300   99.2500   99.4100 c3      2  FDE       -0.0377
     42 H5         92.3700  100.0500   98.7100 hc      2  FDE        0.0257
     43 H6         93.5800   98.8000   99.0700 hc      2  FDE        0.0257
     44 O1         90.2800   98.8100   99.7500 oh      2  FDE       -0.3921
     45 H7         91.4400   97.8100   98.3400 h1      2  FDE        0.0611
     46 C10        93.0400   94.1600  100.6300 c3      2  FDE        0.0639
     47 H8         90.9500   93.7000  100.6300 h1      2  FDE        0.0458
     48 H9         91.4200   94.8200  101.9100 h1      2  FDE        0.0458
     49 O2         93.3500   93.0500  101.4700 oh      2  FDE       -0.3921
     50 C2         93.3300   93.7700   99.1600 c3      2  FDE       -0.0377
     51 H10        93.7000   94.9900  100.9000 h1      2  FDE        0.0611
     52 H11        92.6600   92.9600   98.8300 hc      2  FDE        0.0257
     53 H12        94.3700   93.4300   99.0500 hc      2  FDE        0.0257
     54 H13        93.1800   94.6300   98.4900 hc      2  FDE        0.0257
     55 H14        92.7800   92.3100  101.2000 ho      2  FDE        0.2105
     56 H15        89.9500   99.3000   98.9800 ho      2  FDE        0.2105
     57 H16        86.9600   97.5100   96.7500 h4      2  FDE        0.0902
     58 H17        88.8000   96.0500   95.3700 ha      2  FDE        0.0645
     59 H18        90.4500   95.0200   97.2900 ha      2  FDE        0.0648
     60 O         104.5700  106.4400   96.2000 os      3  FDE       -0.3212
     61 C         105.5600  107.3600   96.4300 cc      3  FDE        0.0455
     62 C3        106.8300  106.8400   96.3500 cd      3  FDE       -0.0364
     63 C4        105.3000  105.3000   95.9900 cc      3  FDE        0.0725
     64 C5        106.6600  105.4700   96.0500 cd      3  FDE       -0.0322
     65 C6        104.6000  104.0000   95.6900 c3      3  FDE        0.0457
     66 N         105.4200  102.8000   96.0000 n3      3  FDE       -0.2919
     67 H         104.3400  104.0200   94.6200 h1      3  FDE        0.0503
     68 H1        103.6500  103.9600   96.2400 h1      3  FDE        0.0503
     69 C7        105.4600  101.8400   94.8600 c3      3  FDE        0.0245
     70 C8        105.1000  102.1600   97.3100 c3      3  FDE        0.0245
     71 C9        105.5700  102.9400   98.5600 c3      3  FDE        0.0639
     72 H2        105.5800  101.1800   97.3700 h1      3  FDE        0.0458
     73 H3        104.0200  101.9800   97.3600 h1      3  FDE        0.0458
     74 C1        105.4400  102.1000   99.8600 c3      3  FDE       -0.0377
     75 H5        105.6100  102.7500  100.7300 hc      3  FDE        0.0257
     76 H6        106.2800  101.3900   99.8300 hc      3  FDE        0.0257
     77 O1        104.9000  104.1900   98.7400 oh      3  FDE       -0.3921
     78 H7        106.6400  103.1500   98.4200 h1      3  FDE        0.0611
     79 C10       106.6200  100.8300   94.9200 c3      3  FDE        0.0639
     80 H8        105.5700  102.4100   93.9200 h1      3  FDE        0.0458
     81 H9        104.5000  101.3000   94.8000 h1      3  FDE        0.0458
     82 O2        106.5700  100.0000   93.7600 oh      3  FDE       -0.3921
     83 C2        108.0000  101.5200   94.9800 c3      3  FDE       -0.0377
     84 H10       106.5100  100.1900   95.8000 h1      3  FDE        0.0611
     85 H11       108.1400  102.2100   94.1400 hc      3  FDE        0.0257
     86 H12       108.8100  100.7700   94.9500 hc      3  FDE        0.0257
     87 H13       108.1100  102.0900   95.9100 hc      3  FDE        0.0257
     88 H14       106.7200  100.5600   92.9800 ho      3  FDE        0.2105
     89 H15       105.3800  104.7000   99.4200 ho      3  FDE        0.2105
     90 H16       105.2300  108.3700   96.6500 h4      3  FDE        0.0902
     91 H17       107.7700  107.3700   96.4900 ha      3  FDE        0.0645
     92 H18       107.4400  104.7300   95.9100 ha      3  FDE        0.0648
     93 O         102.7300   98.7800  106.8700 os      4  FDE       -0.3212
     94 C         101.4400   99.2300  106.9100 cc      4  FDE        0.0455
     95 C3        100.9600   99.6300  105.6800 cd      4  FDE       -0.0364
     96 C4        103.0400   98.9200  105.5500 cc      4  FDE        0.0725
     97 C5        102.0200   99.4100  104.7700 cd      4  FDE       -0.0322
     98 C6        104.3800   98.4800  105.0100 c3      4  FDE        0.0457
     99 N         104.8700   99.3800  103.9400 n3      4  FDE       -0.2919
    100 H         104.2700   97.4600  104.6300 h1      4  FDE        0.0503
    101 H1        105.1100   98.4300  105.8300 h1      4  FDE        0.0503
    102 C7        105.2800   98.6600  102.7100 c3      4  FDE        0.0245
    103 C8        105.7800  100.4700  104.3800 c3      4  FDE        0.0245
    104 C9        105.1700  101.4200  105.4500 c3      4  FDE        0.0639
    105 H2        106.0500  101.0900  103.5200 h1      4  FDE        0.0458
    106 H3        106.7200  100.0400  104.7700 h1      4  FDE        0.0458
    107 C1        105.7800  102.8300  105.3600 c3      4  FDE       -0.0377
    108 H4        106.8700  102.8100  105.5100 hc      4  FDE        0.0257
    109 H5        105.3400  103.4900  106.1100 hc      4  FDE        0.0257
    110 H6        105.5900  103.2700  104.3700 hc      4  FDE        0.0257
    111 O1        105.4100  100.9000  106.7600 oh      4  FDE       -0.3921
    112 H7        104.0900  101.5000  105.2700 h1      4  FDE        0.0611
    113 C10       105.4100   99.5600  101.4600 c3      4  FDE        0.0639
    114 H8        104.5300   97.8900  102.4900 h1      4  FDE        0.0458
    115 H9        106.2300   98.1500  102.8900 h1      4  FDE        0.0458
    116 O2        105.6000   98.7400  100.3100 oh      4  FDE       -0.3921
    117 C2        104.1700  100.4800  101.2700 c3      4  FDE       -0.0377
    118 H10       106.3000  100.1900  101.6000 h1      4  FDE        0.0611
    119 H11       103.2800   99.8400  101.2700 hc      4  FDE        0.0257
    120 H13       104.0900  101.1400  102.1500 hc      4  FDE        0.0257
    121 H14       104.7700   98.2700  100.1400 ho      4  FDE        0.2105
    122 H15       104.8000  101.3600  107.3700 ho      4  FDE        0.2105
    123 H16       100.9500   99.2300  107.8700 h4      4  FDE        0.0902
    124 H17        99.9700  100.0100  105.4500 ha      4  FDE        0.0645
    125 H18       102.0200   99.5900  103.7100 ha      4  FDE        0.0648
@<TRIPOS>BOND
     1     1     2    1
     2     2     3    1
     3     2     4    1
     4     2     5    1
     5     3     6    1
     6     3     7    2
     7     6     8    1
     8     8     9    2
     9     7     9    1
    10     8    10    1
    11    10    11    1
    12    10    12    1
    13    10    13    1
    14    11    14    2
    15    14    15    1
    16    11    16    1
    17    16    17    1
    18    15    17    2
    19    17    18    1
    20    18    19    1
    21    18    20    1
    22    18    21    1
    23     1    22    1
    24     7    23    1
    25     9    24    1
    26    14    25    1
    27    15    26    1
    28    27    28    1
    29    28    29    2
    30    27    30    1
    31    30    31    2
    32    29    31    1
    33    30    32    1
    34    32    33    1
    35    32    34    1
    36    32    35    1
    37    33    36    1
    38    33    37    1
    39    37    38    1
    40    37    39    1
    41    37    40    1
    42    38    41    1
    43    41    42    1
    44    41    43    1
    45    38    44    1
    46    38    45    1
    47    36    46    1
    48    36    47    1
    49    36    48    1
    50    46    49    1
    51    46    50    1
    52    46    51    1
    53    50    52    1
    54    50    53    1
    55    50    54    1
    56    49    55    1
    57    44    56    1
    58    28    57    1
    59    29    58    1
    60    31    59    1
    61     1    41    1
    62    60    61    1
    63    61    62    2
    64    60    63    1
    65    63    64    2
    66    62    64    1
    67    63    65    1
    68    65    66    1
    69    65    67    1
    70    65    68    1
    71    66    69    1
    72    66    70    1
    73    70    71    1
    74    70    72    1
    75    70    73    1
    76    71    74    1
    77    74    75    1
    78    74    76    1
    79    71    77    1
    80    71    78    1
    81    69    79    1
    82    69    80    1
    83    69    81    1
    84    79    82    1
    85    79    83    1
    86    79    84    1
    87    83    85    1
    88    83    86    1
    89    83    87    1
    90    82    88    1
    91    77    89    1
    92    61    90    1
    93    62    91    1
    94    64    92    1
    95    19    74    1
    96    93    94    1
    97    94    95    2
    98    93    96    1
    99    96    97    2
   100    95    97    1
   101    96    98    1
   102    98    99    1
   103    98   100    1
   104    98   101    1
   105    99   102    1
   106    99   103    1
   107   103   104    1
   108   103   105    1
   109   103   106    1
   110   104   107    1
   111   107   108    1
   112   107   109    1
   113   107   110    1
   114   104   111    1
   115   104   112    1
   116   102   113    1
   117   102   114    1
   118   102   115    1
   119   113   116    1
   120   113   117    1
   121   113   118    1
   122   117   119    1
   123   117   120    1
   124   116   121    1
   125   111   122    1
   126    94   123    1
   127    95   124    1
   128    97   125    1
   129    19   117    1
