@<TRIPOS>MOLECULE
DFA+FDE+FDE
    93    96  1  0  0
SMALL
gas

@<TRIPOS>ATOM
      1 N1         94.3200   99.3700   99.6200 n3      1  DFA       -0.3248
      2 C          95.2200  100.0300  100.5900 c3      1  DFA        0.0403
      3 C1         96.6600   99.9800  100.1600 cc      1  DFA        0.0725
      4 H          95.1200   99.5600  101.5700 h1      1  DFA        0.0498
      5 H1         94.9300  101.0800  100.6900 h1      1  DFA        0.0498
      6 O          97.5000  101.0100  100.4900 os      1  DFA       -0.3174
      7 C2         97.2400   99.0000   99.3900 cd      1  DFA       -0.0319
      8 C3         98.6600  100.6200   99.8700 cc      1  DFA        0.0654
      9 C4         98.5700   99.4300   99.1900 cd      1  DFA       -0.0327
     10 C5         99.8600  101.5300   99.8800 c3      1  DFA        0.0418
     11 C6        101.2000  100.8300   99.9600 cc      1  DFA        0.0654
     12 H2         99.7800  102.2200  100.7300 hc      1  DFA        0.0409
     13 H3         99.8400  102.1500   98.9800 hc      1  DFA        0.0409
     14 C7        101.4600   99.6900  100.6800 cd      1  DFA       -0.0327
     15 C8        102.8600   99.4800  100.5200 cd      1  DFA       -0.0319
     16 O1        102.3000  101.3900   99.3500 os      1  DFA       -0.3174
     17 C9        103.2800  100.5200   99.7400 cc      1  DFA        0.0725
     18 C10       104.7100  100.7900   99.3500 c3      1  DFA        0.0403
     19 N2        105.6800  100.3000  100.3400 n3      1  DFA       -0.3248
     20 H4        104.8300  101.8800   99.2300 h1      1  DFA        0.0498
     21 H5        104.9100  100.3400   98.3700 h1      1  DFA        0.0498
     22 H7         94.5400   99.7100   98.6800 hn      1  DFA        0.1188
     23 H8        105.3900  100.6100  101.2700 hn      1  DFA        0.1188
     24 H10        96.7700   98.1000   99.0000 ha      1  DFA        0.0648
     25 H11        99.3400   98.9400   98.6000 ha      1  DFA        0.0648
     26 H12       100.7700   99.1000  101.2600 ha      1  DFA        0.0648
     27 H13       103.4500   98.6800  100.9600 ha      1  DFA        0.0648
     28 O          87.5400  100.9600  102.5800 os      2  FDE       -0.3212
     29 C          87.9600  101.5600  103.7400 cc      2  FDE        0.0455
     30 C3         89.3300  101.6400  103.8500 cd      2  FDE       -0.0364
     31 C4         88.7200  100.6400  101.9800 cc      2  FDE        0.0725
     32 C5         89.8400  101.0300  102.6700 cd      2  FDE       -0.0322
     33 C6         88.7500  100.0100  100.6100 c3      2  FDE        0.0457
     34 N          89.9500   99.1700  100.3800 n3      2  FDE       -0.2919
     35 H          88.7100  100.8300   99.8900 h1      2  FDE        0.0503
     36 H1         87.8300   99.4200  100.4500 h1      2  FDE        0.0503
     37 C7         90.5000   99.3500   99.0100 c3      2  FDE        0.0245
     38 C8         89.8200   97.7400  100.7800 c3      2  FDE        0.0245
     39 C9         89.3800   97.4900  102.2400 c3      2  FDE        0.0639
     40 H2         90.7900   97.2500  100.6500 h1      2  FDE        0.0458
     41 H3         89.1200   97.2300  100.1100 h1      2  FDE        0.0458
     42 C1         89.8100   96.0900  102.7200 c3      2  FDE       -0.0377
     43 H4         89.3700   95.3000  102.1000 hc      2  FDE        0.0257
     44 H5         89.5000   95.9200  103.7600 hc      2  FDE        0.0257
     45 H6         90.9000   95.9900  102.6900 hc      2  FDE        0.0257
     46 O1         87.9600   97.5700  102.3500 oh      2  FDE       -0.3921
     47 H7         89.8500   98.2300  102.8900 h1      2  FDE        0.0611
     48 C10        91.9800   98.9100   98.8600 c3      2  FDE        0.0639
     49 H8         90.4600  100.4100   98.7400 h1      2  FDE        0.0458
     50 H9         89.8800   98.8000   98.2900 h1      2  FDE        0.0458
     51 O2         92.4000   99.2000   97.5200 oh      2  FDE       -0.3921
     52 C2         92.9000   99.6200   99.8800 c3      2  FDE       -0.0377
     53 H10        92.0500   97.8200   99.0100 h1      2  FDE        0.0611
     54 H11        92.7000  100.7000   99.8400 hc      2  FDE        0.0257
     55 H13        92.6400   99.2700  100.8900 hc      2  FDE        0.0257
     56 H14        92.3900  100.1700   97.4200 ho      2  FDE        0.2105
     57 H15        87.7300   97.6600  103.3000 ho      2  FDE        0.2105
     58 H16        87.1900  101.9100  104.4100 h4      2  FDE        0.0902
     59 H17        89.9000  102.0700  104.6600 ha      2  FDE        0.0645
     60 H18        90.8800  100.9200  102.3900 ha      2  FDE        0.0648
     61 O         112.2000  102.8600   97.4800 os      3  FDE       -0.3212
     62 C         111.7200  103.3600   96.3000 cc      3  FDE        0.0455
     63 C3        110.3600  103.2100   96.1500 cd      3  FDE       -0.0364
     64 C4        111.0700  102.3800   98.0700 cc      3  FDE        0.0725
     65 C5        109.9200  102.5700   97.3300 cd      3  FDE       -0.0322
     66 C6        111.1100  101.7800   99.4500 c3      3  FDE        0.0457
     67 N         110.0500  100.7700   99.6800 n3      3  FDE       -0.2919
     68 H         110.9900  102.6200  100.1500 h1      3  FDE        0.0503
     69 H1        112.1000  101.3500   99.6500 h1      3  FDE        0.0503
     70 C7        109.4400  100.8900  101.0300 c3      3  FDE        0.0245
     71 C8        110.4100   99.3700   99.3200 c3      3  FDE        0.0245
     72 C9        110.9400   99.1600   97.8800 c3      3  FDE        0.0639
     73 H2        109.5300   98.7300   99.4400 h1      3  FDE        0.0458
     74 H3        111.1700   98.9900  100.0200 h1      3  FDE        0.0458
     75 C1        110.7400   97.6900   97.4200 c3      3  FDE       -0.0377
     76 H4        111.2900   97.0000   98.0800 hc      3  FDE        0.0257
     77 H5        111.1100   97.5500   96.4000 hc      3  FDE        0.0257
     78 H6        109.6800   97.4200   97.4400 hc      3  FDE        0.0257
     79 O1        112.3300   99.4600   97.8000 oh      3  FDE       -0.3921
     80 H7        110.3600   99.8000   97.2000 h1      3  FDE        0.0611
     81 C10       108.0500  100.2200  101.1600 c3      3  FDE        0.0639
     82 H8        109.3100  101.9500  101.2700 h1      3  FDE        0.0458
     83 H9        110.1200  100.4600  101.7800 h1      3  FDE        0.0458
     84 O2        107.5600  100.4700  102.4800 oh      3  FDE       -0.3921
     85 C2        107.0500  100.7600  100.1100 c3      3  FDE       -0.0377
     86 H10       108.1500   99.1400  101.0300 h1      3  FDE        0.0611
     87 H11       107.0800  101.8600  100.1300 hc      3  FDE        0.0257
     88 H13       107.3800  100.4400   99.1100 hc      3  FDE        0.0257
     89 H14       107.4100  101.4300  102.5700 ho      3  FDE        0.2105
     90 H15       112.5600   99.5600   96.8600 ho      3  FDE        0.2105
     91 H16       112.4500  103.8100   95.6400 h4      3  FDE        0.0902
     92 H17       109.7500  103.5300   95.3100 ha      3  FDE        0.0645
     93 H18       108.9100  102.2900   97.5900 ha      3  FDE        0.0648
@<TRIPOS>BOND
     1     1     2    1
     2     2     3    1
     3     2     4    1
     4     2     5    1
     5     3     6    1
     6     3     7    2
     7     6     8    1
     8     8     9    2
     9     7     9    1
    10     8    10    1
    11    10    11    1
    12    10    12    1
    13    10    13    1
    14    11    14    2
    15    14    15    1
    16    11    16    1
    17    16    17    1
    18    15    17    2
    19    17    18    1
    20    18    19    1
    21    18    20    1
    22    18    21    1
    23     1    22    1
    24    19    23    1
    25     7    24    1
    26     9    25    1
    27    14    26    1
    28    15    27    1
    29    28    29    1
    30    29    30    2
    31    28    31    1
    32    31    32    2
    33    30    32    1
    34    31    33    1
    35    33    34    1
    36    33    35    1
    37    33    36    1
    38    34    37    1
    39    34    38    1
    40    38    39    1
    41    38    40    1
    42    38    41    1
    43    39    42    1
    44    42    43    1
    45    42    44    1
    46    42    45    1
    47    39    46    1
    48    39    47    1
    49    37    48    1
    50    37    49    1
    51    37    50    1
    52    48    51    1
    53    48    52    1
    54    48    53    1
    55    52    54    1
    56    52    55    1
    57    51    56    1
    58    46    57    1
    59    29    58    1
    60    30    59    1
    61    32    60    1
    62     1    52    1
    63    61    62    1
    64    62    63    2
    65    61    64    1
    66    64    65    2
    67    63    65    1
    68    64    66    1
    69    66    67    1
    70    66    68    1
    71    66    69    1
    72    67    70    1
    73    67    71    1
    74    71    72    1
    75    71    73    1
    76    71    74    1
    77    72    75    1
    78    75    76    1
    79    75    77    1
    80    75    78    1
    81    72    79    1
    82    72    80    1
    83    70    81    1
    84    70    82    1
    85    70    83    1
    86    81    84    1
    87    81    85    1
    88    81    86    1
    89    85    87    1
    90    85    88    1
    91    84    89    1
    92    79    90    1
    93    62    91    1
    94    63    92    1
    95    65    93    1
    96    19    85    1
