@<TRIPOS>MOLECULE
DFA+FDE+FDE+FDE
   125   129  1  0  0
SMALL
gas

@<TRIPOS>ATOM
      1 N1         95.7800   99.6200  100.6300 n3      1  DFA       -0.3248
      2 C          97.0000  100.4600  100.5700 c3      1  DFA        0.0403
      3 C1         98.2900   99.6900  100.4400 cc      1  DFA        0.0725
      4 H          97.0800  101.0700  101.4800 h1      1  DFA        0.0498
      5 H1         96.9300  101.1400   99.7200 h1      1  DFA        0.0498
      6 O          99.3100  100.1800   99.6700 os      1  DFA       -0.3174
      7 C2         98.5700   98.4900  101.0600 cd      1  DFA       -0.0319
      8 C3        100.2600   99.2100   99.8300 cc      1  DFA        0.0654
      9 C4         99.8800   98.1700  100.6400 cd      1  DFA       -0.0327
     10 C5        101.5700   99.2800   99.0900 c3      1  DFA        0.0418
     11 C6        102.7700   99.6600   99.9300 cc      1  DFA        0.0654
     12 H2        101.4800  100.0100   98.2800 hc      1  DFA        0.0409
     13 H3        101.7700   98.3200   98.6000 hc      1  DFA        0.0409
     14 C7        102.8700   99.5000  101.2900 cd      1  DFA       -0.0327
     15 C8        104.1800   99.9400  101.6200 cd      1  DFA       -0.0319
     16 O1        103.8900  100.1600   99.3300 os      1  DFA       -0.3174
     17 C9        104.7200  100.3200  100.4100 cc      1  DFA        0.0725
     18 C10       106.0900  100.9200  100.2400 c3      1  DFA        0.0403
     19 N2        107.1000  100.3000  101.1200 n3      1  DFA       -0.3248
     20 H4        106.0300  102.0000  100.4500 h1      1  DFA        0.0498
     21 H5        106.4000  100.8100   99.1900 h1      1  DFA        0.0498
     22 H8        106.8000  100.3900  102.0900 hn      1  DFA        0.1188
     23 H10        97.9200   97.9200  101.7100 ha      1  DFA        0.0648
     24 H11       100.4500   97.2800  100.8900 ha      1  DFA        0.0648
     25 H12       102.1300   99.1100  101.9800 ha      1  DFA        0.0648
     26 H13       104.6300   99.9800  102.6000 ha      1  DFA        0.0648
     27 O          90.5200   96.4600   98.9800 os      2  FDE       -0.3212
     28 C          90.3300   96.2200   97.6500 cc      2  FDE        0.0455
     29 C3         91.3000   95.4200   97.0900 cd      2  FDE       -0.0364
     30 C4         91.6700   95.7700   99.2300 cc      2  FDE        0.0725
     31 C5         92.1900   95.1100   98.1500 cd      2  FDE       -0.0322
     32 C6         92.2500   95.7300  100.6300 c3      2  FDE        0.0457
     33 N          93.7200   95.5700  100.6600 n3      2  FDE       -0.2919
     34 H          91.7600   94.8800  101.1400 h1      2  FDE        0.0503
     35 H1         91.9500   96.6300  101.1800 h1      2  FDE        0.0503
     36 C7         94.1600   94.5500  101.6400 c3      2  FDE        0.0245
     37 C8         94.4700   96.8600  100.7400 c3      2  FDE        0.0245
     38 C9         94.4200   97.7400   99.4700 c3      2  FDE        0.0639
     39 H2         95.5300   96.6400  100.9200 h1      2  FDE        0.0458
     40 H3         94.1200   97.4300  101.6100 h1      2  FDE        0.0458
     41 C1         95.5900   98.7600   99.4200 c3      2  FDE       -0.0377
     42 H5         95.4700   99.3900   98.5300 hc      2  FDE        0.0257
     43 H6         96.5000   98.1800   99.2600 hc      2  FDE        0.0257
     44 O1         93.1600   98.4000   99.3200 oh      2  FDE       -0.3921
     45 H7         94.5500   97.0700   98.6100 h1      2  FDE        0.0611
     46 C10        95.5900   94.0000  101.3900 c3      2  FDE        0.0639
     47 H8         93.4800   93.6900  101.5900 h1      2  FDE        0.0458
     48 H9         94.1000   94.9600  102.6500 h1      2  FDE        0.0458
     49 O2         95.8800   93.0000  102.3500 oh      2  FDE       -0.3921
     50 C2         95.7500   93.4000   99.9700 c3      2  FDE       -0.0377
     51 H10        96.3200   94.8200  101.5000 h1      2  FDE        0.0611
     52 H11        95.0100   92.6100   99.7900 hc      2  FDE        0.0257
     53 H12        96.7500   92.9700   99.8500 hc      2  FDE        0.0257
     54 H13        95.6200   94.1700   99.2000 hc      2  FDE        0.0257
     55 H14        95.2700   92.2600  102.2100 ho      2  FDE        0.2105
     56 H15        92.9500   98.4300   98.3700 ho      2  FDE        0.2105
     57 H16        89.4600   96.6600   97.1900 h4      2  FDE        0.0902
     58 H17        91.3700   95.0800   96.0600 ha      2  FDE        0.0645
     59 H18        93.0800   94.5000   98.1100 ha      2  FDE        0.0648
     60 O          93.1200  103.8500   96.6200 os      3  FDE       -0.3212
     61 C          91.8300  103.5100   96.2900 cc      3  FDE        0.0455
     62 C3         90.9900  103.4600   97.3700 cd      3  FDE       -0.0364
     63 C4         93.0400  103.9800   97.9800 cc      3  FDE        0.0725
     64 C5         91.7900  103.7700   98.5000 cd      3  FDE       -0.0322
     65 C6         94.2700  104.3500   98.7700 c3      3  FDE        0.0457
     66 N          94.1300  104.1400  100.2400 n3      3  FDE       -0.2919
     67 H          94.4800  105.4000   98.5500 h1      3  FDE        0.0503
     68 H1         95.1200  103.7800   98.3900 h1      3  FDE        0.0503
     69 C7         94.4800  105.3600  101.0000 c3      3  FDE        0.0245
     70 C8         94.7800  102.9000  100.7400 c3      3  FDE        0.0245
     71 C9         94.0500  101.5800  100.3800 c3      3  FDE        0.0639
     72 H2         94.8300  102.9300  101.8300 h1      3  FDE        0.0458
     73 H3         95.8100  102.8700  100.3800 h1      3  FDE        0.0458
     74 C1         94.6000  100.3500  101.1800 c3      3  FDE       -0.0377
     75 H5         93.7700   99.6500  101.3300 hc      3  FDE        0.0257
     76 H6         94.8500  100.7000  102.1900 hc      3  FDE        0.0257
     77 O1         94.0600  101.3300   98.9800 oh      3  FDE       -0.3921
     78 H7         93.0000  101.7100  100.7000 h1      3  FDE        0.0611
     79 C10        93.9200  105.4000  102.4500 c3      3  FDE        0.0639
     80 H8         94.0800  106.2400  100.4800 h1      3  FDE        0.0458
     81 H9         95.5700  105.4700  101.0400 h1      3  FDE        0.0458
     82 O2         94.3300  106.6100  103.0800 oh      3  FDE       -0.3921
     83 C2         92.3800  105.3100  102.4800 c3      3  FDE       -0.0377
     84 H10        94.3300  104.5600  103.0200 h1      3  FDE        0.0611
     85 H11        91.9300  106.1100  101.8800 hc      3  FDE        0.0257
     86 H12        92.0100  105.4000  103.5100 hc      3  FDE        0.0257
     87 H13        92.0300  104.3500  102.0800 hc      3  FDE        0.0257
     88 H14        93.9400  107.3500  102.5800 ho      3  FDE        0.2105
     89 H15        93.6000  100.4800   98.8400 ho      3  FDE        0.2105
     90 H16        91.6300  103.3400   95.2400 h4      3  FDE        0.0902
     91 H17        89.9300  103.2200   97.3700 ha      3  FDE        0.0645
     92 H18        91.4800  103.8300   99.5300 ha      3  FDE        0.0648
     93 O         113.5800  102.7100   98.1400 os      4  FDE       -0.3212
     94 C         113.0700  103.2500   96.9900 cc      4  FDE        0.0455
     95 C3        111.7000  103.3300   96.9800 cd      4  FDE       -0.0364
     96 C4        112.4400  102.4300   98.8500 cc      4  FDE        0.0725
     97 C5        111.2800  102.7900   98.2200 cd      4  FDE       -0.0322
     98 C6        112.5100  101.8300  100.2300 c3      4  FDE        0.0457
     99 N         111.4300  100.8300  100.4700 n3      4  FDE       -0.2919
    100 H         112.4100  102.6600  100.9400 h1      4  FDE        0.0503
    101 H1        113.4900  101.3800  100.4000 h1      4  FDE        0.0503
    102 C7        110.8600  100.9300  101.8300 c3      4  FDE        0.0245
    103 C8        111.7500   99.4300  100.0600 c3      4  FDE        0.0245
    104 C9        112.2700   99.2500   98.6100 c3      4  FDE        0.0639
    105 H2        110.8500   98.8200  100.1600 h1      4  FDE        0.0458
    106 H3        112.5000   99.0100  100.7500 h1      4  FDE        0.0458
    107 C1        111.9900   97.8300   98.0900 c3      4  FDE       -0.0377
    108 H4        112.4800   97.0800   98.7200 hc      4  FDE        0.0257
    109 H5        112.3600   97.7100   97.0600 hc      4  FDE        0.0257
    110 H6        110.9100   97.6200   98.0900 hc      4  FDE        0.0257
    111 O1        113.6800   99.4800   98.5500 oh      4  FDE       -0.3921
    112 H7        111.7400   99.9600   97.9600 h1      4  FDE        0.0611
    113 C10       109.4600  100.2800  101.9700 c3      4  FDE        0.0639
    114 H8        110.7500  101.9900  102.1000 h1      4  FDE        0.0458
    115 H9        111.5400  100.4800  102.5500 h1      4  FDE        0.0458
    116 O2        109.0000  100.4700  103.3100 oh      4  FDE       -0.3921
    117 C2        108.4400  100.9000  100.9800 c3      4  FDE       -0.0377
    118 H10       109.5300   99.2100  101.7700 h1      4  FDE        0.0611
    119 H11       108.3800  101.9800  101.1600 hc      4  FDE        0.0257
    120 H13       108.8000  100.7500   99.9500 hc      4  FDE        0.0257
    121 H14       108.9100  101.4200  103.4600 ho      4  FDE        0.2105
    122 H15       113.9000   99.7100   97.6400 ho      4  FDE        0.2105
    123 H16       113.7900  103.5600   96.2500 h4      4  FDE        0.0902
    124 H17       111.0700  103.7300   96.1900 ha      4  FDE        0.0645
    125 H18       110.2600  102.6800   98.5800 ha      4  FDE        0.0648
@<TRIPOS>BOND
     1     1     2    1
     2     2     3    1
     3     2     4    1
     4     2     5    1
     5     3     6    1
     6     3     7    2
     7     6     8    1
     8     8     9    2
     9     7     9    1
    10     8    10    1
    11    10    11    1
    12    10    12    1
    13    10    13    1
    14    11    14    2
    15    14    15    1
    16    11    16    1
    17    16    17    1
    18    15    17    2
    19    17    18    1
    20    18    19    1
    21    18    20    1
    22    18    21    1
    23    19    22    1
    24     7    23    1
    25     9    24    1
    26    14    25    1
    27    15    26    1
    28    27    28    1
    29    28    29    2
    30    27    30    1
    31    30    31    2
    32    29    31    1
    33    30    32    1
    34    32    33    1
    35    32    34    1
    36    32    35    1
    37    33    36    1
    38    33    37    1
    39    37    38    1
    40    37    39    1
    41    37    40    1
    42    38    41    1
    43    41    42    1
    44    41    43    1
    45    38    44    1
    46    38    45    1
    47    36    46    1
    48    36    47    1
    49    36    48    1
    50    46    49    1
    51    46    50    1
    52    46    51    1
    53    50    52    1
    54    50    53    1
    55    50    54    1
    56    49    55    1
    57    44    56    1
    58    28    57    1
    59    29    58    1
    60    31    59    1
    61     1    41    1
    62    60    61    1
    63    61    62    2
    64    60    63    1
    65    63    64    2
    66    62    64    1
    67    63    65    1
    68    65    66    1
    69    65    67    1
    70    65    68    1
    71    66    69    1
    72    66    70    1
    73    70    71    1
    74    70    72    1
    75    70    73    1
    76    71    74    1
    77    74    75    1
    78    74    76    1
    79    71    77    1
    80    71    78    1
    81    69    79    1
    82    69    80    1
    83    69    81    1
    84    79    82    1
    85    79    83    1
    86    79    84    1
    87    83    85    1
    88    83    86    1
    89    83    87    1
    90    82    88    1
    91    77    89    1
    92    61    90    1
    93    62    91    1
    94    64    92    1
    95     1    74    1
    96    93    94    1
    97    94    95    2
    98    93    96    1
    99    96    97    2
   100    95    97    1
   101    96    98    1
   102    98    99    1
   103    98   100    1
   104    98   101    1
   105    99   102    1
   106    99   103    1
   107   103   104    1
   108   103   105    1
   109   103   106    1
   110   104   107    1
   111   107   108    1
   112   107   109    1
   113   107   110    1
   114   104   111    1
   115   104   112    1
   116   102   113    1
   117   102   114    1
   118   102   115    1
   119   113   116    1
   120   113   117    1
   121   113   118    1
   122   117   119    1
   123   117   120    1
   124   116   121    1
   125   111   122    1
   126    94   123    1
   127    95   124    1
   128    97   125    1
   129    19   117    1
