@<TRIPOS>MOLECULE
DFA+FDE+FDE
    93    96  1  0  0
SMALL
gas

@<TRIPOS>ATOM
      1 N1         94.2000  100.1100  102.0600 n3      1  DFA       -0.3248
      2 C          95.0900  101.2800  102.0900 c3      1  DFA        0.0403
      3 C1         96.5400  100.9300  101.8900 cc      1  DFA        0.0725
      4 H          94.9900  101.7800  103.0700 h1      1  DFA        0.0498
      5 H1         94.7800  102.0000  101.3300 h1      1  DFA        0.0498
      6 O          97.2500  101.4900  100.8700 os      1  DFA       -0.3174
      7 C2         97.2700  100.1600  102.7500 cd      1  DFA       -0.0319
      8 C3         98.5100  101.0200  101.1400 cc      1  DFA        0.0654
      9 C4         98.6000  100.2200  102.2500 cd      1  DFA       -0.0327
     10 C5         99.6700  101.4500  100.2700 c3      1  DFA        0.0418
     11 C6        101.0200  100.9300  100.7000 cc      1  DFA        0.0654
     12 H2         99.7000  102.5500  100.2500 hc      1  DFA        0.0409
     13 H3         99.4800  101.1400   99.2400 hc      1  DFA        0.0409
     14 C7        101.4200   99.6300  100.5700 cd      1  DFA       -0.0327
     15 C8        102.7800   99.6300  100.9800 cd      1  DFA       -0.0319
     16 O1        101.9800  101.7900  101.1500 os      1  DFA       -0.3174
     17 C9        103.0500  100.9400  101.3000 cc      1  DFA        0.0725
     18 C10       104.4000  101.5000  101.6600 c3      1  DFA        0.0403
     19 N2        105.5100  100.6100  101.2600 n3      1  DFA       -0.3248
     20 H4        104.4400  101.6800  102.7400 h1      1  DFA        0.0498
     21 H5        104.4900  102.4600  101.1600 h1      1  DFA        0.0498
     22 H6         93.2600  100.4000  102.3400 hn      1  DFA        0.1188
     23 H8        105.4900   99.7700  101.8500 hn      1  DFA        0.1188
     24 H10        96.9300   99.6500  103.6500 ha      1  DFA        0.0648
     25 H11        99.4800   99.7500  102.6900 ha      1  DFA        0.0648
     26 H12       100.8500   98.7800  100.2000 ha      1  DFA        0.0648
     27 H13       103.4600   98.7900  100.9900 ha      1  DFA        0.0648
     28 O          89.4700   97.0100   99.9200 os      2  FDE       -0.3212
     29 C          89.3000   96.9900   98.5600 cc      2  FDE        0.0455
     30 C3         90.2600   96.2700   97.8900 cd      2  FDE       -0.0364
     31 C4         90.6100   96.2600  100.0700 cc      2  FDE        0.0725
     32 C5         91.1300   95.7800   98.9000 cd      2  FDE       -0.0322
     33 C6         91.1700   95.9600  101.4400 c3      2  FDE        0.0457
     34 N          92.6500   95.9100  101.4700 n3      2  FDE       -0.2919
     35 H          90.7400   94.9900  101.7300 h1      2  FDE        0.0503
     36 H1         90.8000   96.7000  102.1600 h1      2  FDE        0.0503
     37 C7         93.1400   94.8000  102.3300 c3      2  FDE        0.0245
     38 C8         93.3300   97.2100  101.7300 c3      2  FDE        0.0245
     39 C9         92.9900   98.3600  100.7400 c3      2  FDE        0.0639
     40 H2         94.4100   97.0600  101.6800 h1      2  FDE        0.0458
     41 H3         93.1000   97.5400  102.7500 h1      2  FDE        0.0458
     42 C1         94.0900   99.4500  100.7500 c3      2  FDE       -0.0377
     43 H5         93.8300  100.2000   99.9800 hc      2  FDE        0.0257
     44 H6         95.0500   99.0000  100.4700 hc      2  FDE        0.0257
     45 O1         91.7400   98.9700  101.0900 oh      2  FDE       -0.3921
     46 H7         92.9300   97.9400   99.7300 h1      2  FDE        0.0611
     47 C10        94.6200   94.4200  102.1000 c3      2  FDE        0.0639
     48 H8         92.5400   93.9000  102.1500 h1      2  FDE        0.0458
     49 H9         93.0100   95.0800  103.3900 h1      2  FDE        0.0458
     50 O2         94.9700   93.3400  102.9600 oh      2  FDE       -0.3921
     51 C2         94.8900   94.0000  100.6400 c3      2  FDE       -0.0377
     52 H10        95.2700   95.2700  102.3400 h1      2  FDE        0.0611
     53 H11        94.2400   93.1700  100.3400 hc      2  FDE        0.0257
     54 H12        95.9400   93.6700  100.5100 hc      2  FDE        0.0257
     55 H13        94.7200   94.8300   99.9500 hc      2  FDE        0.0257
     56 H14        94.4100   92.5700  102.7200 ho      2  FDE        0.2105
     57 H15        91.4200   99.4500  100.3100 ho      2  FDE        0.2105
     58 H16        88.4400   97.5300   98.1800 h4      2  FDE        0.0902
     59 H17        90.3400   96.1100   96.8200 ha      2  FDE        0.0645
     60 H18        92.0100   95.1600   98.7600 ha      2  FDE        0.0648
     61 O         106.1900  106.5300   97.7000 os      3  FDE       -0.3212
     62 C         107.2200  107.4100   97.9200 cc      3  FDE        0.0455
     63 C3        108.4200  106.8000   98.1500 cd      3  FDE       -0.0364
     64 C4        106.8200  105.3200   97.8100 cc      3  FDE        0.0725
     65 C5        108.1700  105.4100   98.0800 cd      3  FDE       -0.0322
     66 C6        106.0300  104.0400   97.7100 c3      3  FDE        0.0457
     67 N         106.8800  102.8200   97.7200 n3      3  FDE       -0.2919
     68 H         105.4200  104.0800   96.8000 h1      3  FDE        0.0503
     69 H1        105.3200  104.0200   98.5500 h1      3  FDE        0.0503
     70 C7        106.9900  102.2100   96.3700 c3      3  FDE        0.0245
     71 C8        106.5400  101.8800   98.8100 c3      3  FDE        0.0245
     72 C9        107.1200  102.2800  100.2000 c3      3  FDE        0.0639
     73 H2        106.9400  100.8800   98.5900 h1      3  FDE        0.0458
     74 H3        105.4500  101.7600   98.8800 h1      3  FDE        0.0458
     75 C1        106.8700  101.1900  101.2800 c3      3  FDE       -0.0377
     76 H5        107.0900  101.5900  102.2700 hc      3  FDE        0.0257
     77 H6        107.5800  100.3800  101.0900 hc      3  FDE        0.0257
     78 O1        106.6300  103.5400  100.6600 oh      3  FDE       -0.3921
     79 H7        108.2100  102.3700  100.0800 h1      3  FDE        0.0611
     80 C10       108.1700  101.2200   96.2100 c3      3  FDE        0.0639
     81 H8        107.1200  103.0100   95.6300 h1      3  FDE        0.0458
     82 H9        106.0500  101.7000   96.1300 h1      3  FDE        0.0458
     83 O2        108.1600  100.6900   94.8900 oh      3  FDE       -0.3921
     84 C2        109.5400  101.8900   96.4700 c3      3  FDE       -0.0377
     85 H10       108.0500  100.3900   96.9100 h1      3  FDE        0.0611
     86 H11       109.6800  102.7600   95.8100 hc      3  FDE        0.0257
     87 H12       110.3500  101.1900   96.2900 hc      3  FDE        0.0257
     88 H13       109.6100  102.2300   97.5100 hc      3  FDE        0.0257
     89 H14       108.2900  101.4300   94.2700 ho      3  FDE        0.2105
     90 H15       107.1300  103.7900  101.4600 ho      3  FDE        0.2105
     91 H16       106.9600  108.4600   97.9000 h4      3  FDE        0.0902
     92 H17       109.3700  107.2800   98.3600 ha      3  FDE        0.0645
     93 H18       108.8700  104.6000   98.2300 ha      3  FDE        0.0648
@<TRIPOS>BOND
     1     1     2    1
     2     2     3    1
     3     2     4    1
     4     2     5    1
     5     3     6    1
     6     3     7    2
     7     6     8    1
     8     8     9    2
     9     7     9    1
    10     8    10    1
    11    10    11    1
    12    10    12    1
    13    10    13    1
    14    11    14    2
    15    14    15    1
    16    11    16    1
    17    16    17    1
    18    15    17    2
    19    17    18    1
    20    18    19    1
    21    18    20    1
    22    18    21    1
    23     1    22    1
    24    19    23    1
    25     7    24    1
    26     9    25    1
    27    14    26    1
    28    15    27    1
    29    28    29    1
    30    29    30    2
    31    28    31    1
    32    31    32    2
    33    30    32    1
    34    31    33    1
    35    33    34    1
    36    33    35    1
    37    33    36    1
    38    34    37    1
    39    34    38    1
    40    38    39    1
    41    38    40    1
    42    38    41    1
    43    39    42    1
    44    42    43    1
    45    42    44    1
    46    39    45    1
    47    39    46    1
    48    37    47    1
    49    37    48    1
    50    37    49    1
    51    47    50    1
    52    47    51    1
    53    47    52    1
    54    51    53    1
    55    51    54    1
    56    51    55    1
    57    50    56    1
    58    45    57    1
    59    29    58    1
    60    30    59    1
    61    32    60    1
    62     1    42    1
    63    61    62    1
    64    62    63    2
    65    61    64    1
    66    64    65    2
    67    63    65    1
    68    64    66    1
    69    66    67    1
    70    66    68    1
    71    66    69    1
    72    67    70    1
    73    67    71    1
    74    71    72    1
    75    71    73    1
    76    71    74    1
    77    72    75    1
    78    75    76    1
    79    75    77    1
    80    72    78    1
    81    72    79    1
    82    70    80    1
    83    70    81    1
    84    70    82    1
    85    80    83    1
    86    80    84    1
    87    80    85    1
    88    84    86    1
    89    84    87    1
    90    84    88    1
    91    83    89    1
    92    78    90    1
    93    62    91    1
    94    63    92    1
    95    65    93    1
    96    19    75    1
