@<TRIPOS>MOLECULE
DFA+FDE+FDE+FDE+FDE
   157   162  1  0  0
SMALL
gas

@<TRIPOS>ATOM
      1 N1         94.7700   99.3000  100.2700 n3      1  DFA       -0.3248
      2 C          95.9200  100.2400  100.2800 c3      1  DFA        0.0403
      3 C1         97.2900   99.6300  100.1700 cc      1  DFA        0.0725
      4 H          95.8900  100.8400  101.2000 h1      1  DFA        0.0498
      5 H1         95.8100  100.9300   99.4400 h1      1  DFA        0.0498
      6 O          98.0700   99.9500   99.0900 os      1  DFA       -0.3174
      7 C2         97.9400   98.9500  101.1600 cd      1  DFA       -0.0319
      8 C3         99.2800   99.4500   99.4700 cc      1  DFA        0.0654
      9 C4         99.2800   98.8200  100.6900 cd      1  DFA       -0.0327
     10 C5        100.4700   99.6600   98.5700 c3      1  DFA        0.0418
     11 C6        101.8200   99.4800   99.2100 cc      1  DFA        0.0654
     12 H2        100.4100  100.6700   98.1600 hc      1  DFA        0.0409
     13 H3        100.3700   98.9900   97.7000 hc      1  DFA        0.0409
     14 C7        102.6000   98.3700   99.0000 cd      1  DFA       -0.0327
     15 C8        103.9000   98.7600   99.4400 cd      1  DFA       -0.0319
     16 O1        102.4800  100.5400   99.7600 os      1  DFA       -0.3174
     17 C9        103.7500  100.0500   99.8700 cc      1  DFA        0.0725
     18 C10       104.8800  101.0000  100.1800 c3      1  DFA        0.0403
     19 N2        106.2200  100.3700  100.3100 n3      1  DFA       -0.3248
     20 H4        104.6400  101.5700  101.0900 h1      1  DFA        0.0498
     21 H5        104.8700  101.7200   99.3600 h1      1  DFA        0.0498
     22 H10        97.5500   98.6400  102.1200 ha      1  DFA        0.0648
     23 H11       100.1100   98.3700  101.2100 ha      1  DFA        0.0648
     24 H12       102.3300   97.4500   98.5000 ha      1  DFA        0.0648
     25 H13       104.8100   98.1900   99.3400 ha      1  DFA        0.0648
     26 O          89.6000   96.0800   98.5100 os      2  FDE       -0.3212
     27 C          89.4300   95.8700   97.1600 cc      2  FDE        0.0455
     28 C3         90.4200   95.1100   96.5900 cd      2  FDE       -0.0364
     29 C4         90.7700   95.4100   98.7400 cc      2  FDE        0.0725
     30 C5         91.3100   94.8000   97.6400 cd      2  FDE       -0.0322
     31 C6         91.3300   95.3300  100.1400 c3      2  FDE        0.0457
     32 N          92.8100   95.1900  100.1800 n3      2  FDE       -0.2919
     33 H          90.8500   94.4700  100.6200 h1      2  FDE        0.0503
     34 H1         91.0200   96.2200  100.7000 h1      2  FDE        0.0503
     35 C7         93.2400   94.1500  101.1400 c3      2  FDE        0.0245
     36 C8         93.5500   96.4800  100.3200 c3      2  FDE        0.0245
     37 C9         93.6500   97.3100   99.0100 c3      2  FDE        0.0639
     38 H2         94.5800   96.2800  100.6300 h1      2  FDE        0.0458
     39 H3         93.1000   97.0900  101.1100 h1      2  FDE        0.0458
     40 C1         94.7800   98.3900   99.0900 c3      2  FDE       -0.0377
     41 H5         94.7600   98.9700   98.1600 hc      2  FDE        0.0257
     42 H6         95.7300   97.8400   99.0700 hc      2  FDE        0.0257
     43 O1         92.4100   97.9200   98.6500 oh      2  FDE       -0.3921
     44 H7         93.9300   96.6200   98.2100 h1      2  FDE        0.0611
     45 C10        94.6800   93.6100  100.8900 c3      2  FDE        0.0639
     46 H8         92.5700   93.2900  101.0800 h1      2  FDE        0.0458
     47 H9         93.1800   94.5400  102.1700 h1      2  FDE        0.0458
     48 O2         94.9700   92.6000  101.8600 oh      2  FDE       -0.3921
     49 C2         94.8400   93.0200   99.4700 c3      2  FDE       -0.0377
     50 H10        95.4000   94.4300  101.0100 h1      2  FDE        0.0611
     51 H11        94.1100   92.2200   99.2900 hc      2  FDE        0.0257
     52 H12        95.8400   92.5900   99.3500 hc      2  FDE        0.0257
     53 H13        94.7000   93.7900   98.7100 hc      2  FDE        0.0257
     54 H14        94.3600   91.8600  101.7000 ho      2  FDE        0.2105
     55 H15        92.4300   98.0800   97.6900 ho      2  FDE        0.2105
     56 H16        88.5500   96.3200   96.7200 h4      2  FDE        0.0902
     57 H17        90.5000   94.8100   95.5500 ha      2  FDE        0.0645
     58 H18        92.2100   94.2000   97.5800 ha      2  FDE        0.0648
     59 O          92.1400  103.2600   96.0600 os      3  FDE       -0.3212
     60 C          90.8700  102.8700   95.7000 cc      3  FDE        0.0455
     61 C3         89.9800  102.8500   96.7400 cd      3  FDE       -0.0364
     62 C4         91.9900  103.4600   97.4100 cc      3  FDE        0.0725
     63 C5         90.7200  103.2500   97.8800 cd      3  FDE       -0.0322
     64 C6         93.1600  103.9500   98.2300 c3      3  FDE        0.0457
     65 N          92.9800  103.7700   99.6900 n3      3  FDE       -0.2919
     66 H          93.2800  105.0100   97.9900 h1      3  FDE        0.0503
     67 H1         94.0700  103.4500   97.8900 h1      3  FDE        0.0503
     68 C7         93.3900  104.9900  100.4300 c3      3  FDE        0.0245
     69 C8         93.6100  102.5300  100.2300 c3      3  FDE        0.0245
     70 C9         93.0000  101.1700   99.7700 c3      3  FDE        0.0639
     71 H2         93.5300  102.5300  101.3200 h1      3  FDE        0.0458
     72 H3         94.6800  102.5600  100.0000 h1      3  FDE        0.0458
     73 C1         93.4900   99.9700  100.6400 c3      3  FDE       -0.0377
     74 H5         92.6800   99.2300  100.6900 hc      3  FDE        0.0257
     75 H6         93.5800  100.3300  101.6800 hc      3  FDE        0.0257
     76 O1         93.2500  100.9200   98.3900 oh      3  FDE       -0.3921
     77 H7         91.9200  101.2500   99.9200 h1      3  FDE        0.0611
     78 C10        92.9000  105.0600  101.9000 c3      3  FDE        0.0639
     79 H8         92.9900  105.8700   99.9200 h1      3  FDE        0.0458
     80 H9         94.4900  105.0800  100.4100 h1      3  FDE        0.0458
     81 O2         93.3500  106.2800  102.4800 oh      3  FDE       -0.3921
     82 C2         91.3600  104.9900  102.0000 c3      3  FDE       -0.0377
     83 H10        93.3300  104.2300  102.4700 h1      3  FDE        0.0611
     84 H11        90.8900  105.7900  101.4200 hc      3  FDE        0.0257
     85 H12        91.0400  105.1000  103.0500 hc      3  FDE        0.0257
     86 H13        90.9900  104.0300  101.6300 hc      3  FDE        0.0257
     87 H14        92.9600  107.0100  101.9800 ho      3  FDE        0.2105
     88 H15        92.8200  100.0800   98.1700 ho      3  FDE        0.2105
     89 H16        90.7300  102.6300   94.6500 h4      3  FDE        0.0902
     90 H17        88.9300  102.5900   96.7000 ha      3  FDE        0.0645
     91 H18        90.3500  103.3700   98.8900 ha      3  FDE        0.0648
     92 O         106.3500  105.5600   96.4900 os      4  FDE       -0.3212
     93 C         107.3100  106.5200   96.7100 cc      4  FDE        0.0455
     94 C3        108.5900  106.0500   96.6000 cd      4  FDE       -0.0364
     95 C4        107.1100  104.4500   96.2700 cc      4  FDE        0.0725
     96 C5        108.4700  104.6700   96.3000 cd      4  FDE       -0.0322
     97 C6        106.4600  103.1300   95.9600 c3      4  FDE        0.0457
     98 N         107.3200  101.9500   96.2500 n3      4  FDE       -0.2919
     99 H         106.1800  103.1500   94.9000 h1      4  FDE        0.0503
    100 H1        105.5200  103.0500   96.5200 h1      4  FDE        0.0503
    101 C7        107.3600  101.0100   95.1100 c3      4  FDE        0.0245
    102 C8        107.0500  101.3000   97.5600 c3      4  FDE        0.0245
    103 C9        107.4300  102.1400   98.8200 c3      4  FDE        0.0639
    104 H2        107.6300  100.3700   97.6300 h1      4  FDE        0.0458
    105 H3        106.0000  101.0100   97.6100 h1      4  FDE        0.0458
    106 C1        107.3900  101.2900  100.1300 c3      4  FDE       -0.0377
    107 H5        107.4600  101.9700  100.9900 hc      4  FDE        0.0257
    108 H6        108.3100  100.6900  100.1200 hc      4  FDE        0.0257
    109 O1        106.6200  103.3000   98.9900 oh      4  FDE       -0.3921
    110 H7        108.4700  102.4700   98.6900 h1      4  FDE        0.0611
    111 C10       108.5600  100.0300   95.1300 c3      4  FDE        0.0639
    112 H8        107.4300  101.5800   94.1700 h1      4  FDE        0.0458
    113 H9        106.4200  100.4300   95.0800 h1      4  FDE        0.0458
    114 O2        108.5000   99.2000   93.9700 oh      4  FDE       -0.3921
    115 C2        109.9200  100.7700   95.1500 c3      4  FDE       -0.0377
    116 H10       108.5000   99.3900   96.0200 h1      4  FDE        0.0611
    117 H11       110.0000  101.4600   94.3000 hc      4  FDE        0.0257
    118 H12       110.7500  100.0500   95.0900 hc      4  FDE        0.0257
    119 H13       110.0400  101.3400   96.0700 hc      4  FDE        0.0257
    120 H14       108.5900   99.7700   93.1900 ho      4  FDE        0.2105
    121 H15       107.0500  103.8800   99.6400 ho      4  FDE        0.2105
    122 H16       106.9500  107.5200   96.9200 h4      4  FDE        0.0902
    123 H17       109.5100  106.6100   96.7200 ha      4  FDE        0.0645
    124 H18       109.2600  103.9600   96.1400 ha      4  FDE        0.0648
    125 O         104.7200   98.0000  107.0500 os      5  FDE       -0.3212
    126 C         103.4000   98.3900  106.9900 cc      5  FDE        0.0455
    127 C3        102.9700   98.6700  105.7100 cd      5  FDE       -0.0364
    128 C4        105.0900   98.0600  105.7400 cc      5  FDE        0.0725
    129 C5        104.0900   98.4500  104.8800 cd      5  FDE       -0.0322
    130 C6        106.4900   97.6900  105.3100 c3      5  FDE        0.0457
    131 N         107.0000   98.6100  104.2600 n3      5  FDE       -0.2919
    132 H         106.4500   96.6600  104.9300 h1      5  FDE        0.0503
    133 H1        107.1600   97.6900  106.1800 h1      5  FDE        0.0503
    134 C7        107.5400   97.9100  103.0700 c3      5  FDE        0.0245
    135 C8        107.8000   99.7600  104.7400 c3      5  FDE        0.0245
    136 C9        107.0600  100.6800  105.7400 c3      5  FDE        0.0639
    137 H2        108.0900  100.3800  103.8800 h1      5  FDE        0.0458
    138 H3        108.7300   99.4000  105.2000 h1      5  FDE        0.0458
    139 C1        107.5700  102.1300  105.6700 c3      5  FDE       -0.0377
    140 H4        108.6500  102.1800  105.8900 hc      5  FDE        0.0257
    141 H5        107.0400  102.7700  106.3800 hc      5  FDE        0.0257
    142 H6        107.4200  102.5400  104.6600 hc      5  FDE        0.0257
    143 O1        107.2400  100.2000  107.0800 oh      5  FDE       -0.3921
    144 H7        105.9900  100.6900  105.4900 h1      5  FDE        0.0611
    145 C10       107.6200   98.8000  101.8000 c3      5  FDE        0.0639
    146 H8        106.8800   97.0600  102.8300 h1      5  FDE        0.0458
    147 H9        108.5300   97.5000  103.3000 h1      5  FDE        0.0458
    148 O2        107.9300   97.9800  100.6700 oh      5  FDE       -0.3921
    149 C2        106.3000   99.5800  101.5700 c3      5  FDE       -0.0377
    150 H10       108.4400   99.5200  101.9500 h1      5  FDE        0.0611
    151 H11       105.4800   98.8500  101.6000 hc      5  FDE        0.0257
    152 H13       106.1500  100.2600  102.4100 hc      5  FDE        0.0257
    153 H14       107.1600   97.4300  100.4900 ho      5  FDE        0.2105
    154 H15       106.5400  100.5900  107.6300 ho      5  FDE        0.2105
    155 H16       102.8700   98.4200  107.9200 h4      5  FDE        0.0902
    156 H17       101.9800   98.9800  105.4100 ha      5  FDE        0.0645
    157 H18       104.1500   98.5600  103.8000 ha      5  FDE        0.0648
@<TRIPOS>BOND
     1     1     2    1
     2     2     3    1
     3     2     4    1
     4     2     5    1
     5     3     6    1
     6     3     7    2
     7     6     8    1
     8     8     9    2
     9     7     9    1
    10     8    10    1
    11    10    11    1
    12    10    12    1
    13    10    13    1
    14    11    14    2
    15    14    15    1
    16    11    16    1
    17    16    17    1
    18    15    17    2
    19    17    18    1
    20    18    19    1
    21    18    20    1
    22    18    21    1
    23     7    22    1
    24     9    23    1
    25    14    24    1
    26    15    25    1
    27    26    27    1
    28    27    28    2
    29    26    29    1
    30    29    30    2
    31    28    30    1
    32    29    31    1
    33    31    32    1
    34    31    33    1
    35    31    34    1
    36    32    35    1
    37    32    36    1
    38    36    37    1
    39    36    38    1
    40    36    39    1
    41    37    40    1
    42    40    41    1
    43    40    42    1
    44    37    43    1
    45    37    44    1
    46    35    45    1
    47    35    46    1
    48    35    47    1
    49    45    48    1
    50    45    49    1
    51    45    50    1
    52    49    51    1
    53    49    52    1
    54    49    53    1
    55    48    54    1
    56    43    55    1
    57    27    56    1
    58    28    57    1
    59    30    58    1
    60     1    40    1
    61    59    60    1
    62    60    61    2
    63    59    62    1
    64    62    63    2
    65    61    63    1
    66    62    64    1
    67    64    65    1
    68    64    66    1
    69    64    67    1
    70    65    68    1
    71    65    69    1
    72    69    70    1
    73    69    71    1
    74    69    72    1
    75    70    73    1
    76    73    74    1
    77    73    75    1
    78    70    76    1
    79    70    77    1
    80    68    78    1
    81    68    79    1
    82    68    80    1
    83    78    81    1
    84    78    82    1
    85    78    83    1
    86    82    84    1
    87    82    85    1
    88    82    86    1
    89    81    87    1
    90    76    88    1
    91    60    89    1
    92    61    90    1
    93    63    91    1
    94     1    73    1
    95    92    93    1
    96    93    94    2
    97    92    95    1
    98    95    96    2
    99    94    96    1
   100    95    97    1
   101    97    98    1
   102    97    99    1
   103    97   100    1
   104    98   101    1
   105    98   102    1
   106   102   103    1
   107   102   104    1
   108   102   105    1
   109   103   106    1
   110   106   107    1
   111   106   108    1
   112   103   109    1
   113   103   110    1
   114   101   111    1
   115   101   112    1
   116   101   113    1
   117   111   114    1
   118   111   115    1
   119   111   116    1
   120   115   117    1
   121   115   118    1
   122   115   119    1
   123   114   120    1
   124   109   121    1
   125    93   122    1
   126    94   123    1
   127    96   124    1
   128    19   106    1
   129   125   126    1
   130   126   127    2
   131   125   128    1
   132   128   129    2
   133   127   129    1
   134   128   130    1
   135   130   131    1
   136   130   132    1
   137   130   133    1
   138   131   134    1
   139   131   135    1
   140   135   136    1
   141   135   137    1
   142   135   138    1
   143   136   139    1
   144   139   140    1
   145   139   141    1
   146   139   142    1
   147   136   143    1
   148   136   144    1
   149   134   145    1
   150   134   146    1
   151   134   147    1
   152   145   148    1
   153   145   149    1
   154   145   150    1
   155   149   151    1
   156   149   152    1
   157   148   153    1
   158   143   154    1
   159   126   155    1
   160   127   156    1
   161   129   157    1
   162    19   149    1
