@<TRIPOS>MOLECULE
DFA+FDE+FDE+FDE+FDE
   157   162  1  0  0
SMALL
gas

@<TRIPOS>ATOM
      1 N1         94.8100   98.9400   98.8200 n3      1  DFA       -0.3248
      2 C          95.5500  100.0800   98.2100 c3      1  DFA        0.0403
      3 C1         97.0500   99.9600   98.2800 cc      1  DFA        0.0725
      4 H          95.2800  101.0100   98.7300 h1      1  DFA        0.0498
      5 H1         95.2600  100.2000   97.1600 h1      1  DFA        0.0498
      6 O          97.7200  100.1700   99.4600 os      1  DFA       -0.3174
      7 C2         97.8500   99.7100   97.2000 cd      1  DFA       -0.0319
      8 C3         99.0200  100.0100   99.0500 cc      1  DFA        0.0654
      9 C4         99.1700   99.7500   97.7100 cd      1  DFA       -0.0327
     10 C5        100.1300  100.1500  100.0600 c3      1  DFA        0.0418
     11 C6        101.5200   99.9000   99.5100 cc      1  DFA        0.0654
     12 H2         99.9500   99.4500  100.8900 hc      1  DFA        0.0409
     13 H3        100.1000  101.1500  100.5000 hc      1  DFA        0.0409
     14 C7        101.9600   98.6900   99.0400 cd      1  DFA       -0.0327
     15 C8        103.3100   98.9300   98.6700 cd      1  DFA       -0.0319
     16 O1        102.4500  100.9000   99.5000 os      1  DFA       -0.3174
     17 C9        103.5300  100.2400   98.9900 cc      1  DFA        0.0725
     18 C10       104.8400  100.9800   98.8400 c3      1  DFA        0.0403
     19 N2        106.0600  100.1700   99.1700 n3      1  DFA       -0.3248
     20 H4        104.8100  101.8700   99.4600 h1      1  DFA        0.0498
     21 H5        104.8800  101.3200   97.8000 h1      1  DFA        0.0498
     22 H10        97.5500   99.5300   96.1700 ha      1  DFA        0.0648
     23 H11       100.0900   99.6000   97.1500 ha      1  DFA        0.0648
     24 H12       101.4100   97.7600   98.9600 ha      1  DFA        0.0648
     25 H13       104.0200   98.2100   98.2600 ha      1  DFA        0.0648
     26 O          88.2800  100.3200  102.4200 os      2  FDE       -0.3212
     27 C          88.8000  100.7400  103.6200 cc      2  FDE        0.0455
     28 C3         90.1600  100.9400  103.5900 cd      2  FDE       -0.0364
     29 C4         89.4000  100.2600  101.6400 cc      2  FDE        0.0725
     30 C5         90.5600  100.6300  102.2700 cd      2  FDE       -0.0322
     31 C6         89.3000   99.9100  100.1700 c3      2  FDE        0.0457
     32 N          90.4700   99.1400   99.6900 n3      2  FDE       -0.2919
     33 H          89.2200  100.8600   99.6300 h1      2  FDE        0.0503
     34 H1         88.3700   99.3600   99.9800 h1      2  FDE        0.0503
     35 C7         90.9700   99.6400   98.3800 c3      2  FDE        0.0245
     36 C8         90.3400   97.6600   99.7700 c3      2  FDE        0.0245
     37 C9         90.0000   97.1100  101.1900 c3      2  FDE        0.0639
     38 H2         91.2900   97.1900   99.4600 h1      2  FDE        0.0458
     39 H3         89.5700   97.3100   99.0700 h1      2  FDE        0.0458
     40 C1         90.5300   95.6700  101.3800 c3      2  FDE       -0.0377
     41 H4         90.0700   94.9900  100.6600 hc      2  FDE        0.0257
     42 H5         90.3100   95.3100  102.3900 hc      2  FDE        0.0257
     43 H6         91.6200   95.6400  101.2400 hc      2  FDE        0.0257
     44 O1         88.5900   97.1000  101.3900 oh      2  FDE       -0.3921
     45 H7         90.4900   97.7500  101.9300 h1      2  FDE        0.0611
     46 C10        92.3700   99.1200   97.9800 c3      2  FDE        0.0639
     47 H8         91.0200  100.7300   98.4200 h1      2  FDE        0.0458
     48 H9         90.2500   99.3800   97.6000 h1      2  FDE        0.0458
     49 O2         92.7800   99.8400   96.8100 oh      2  FDE       -0.3921
     50 C2         93.4000   99.2700   99.1400 c3      2  FDE       -0.0377
     51 H10        92.2800   98.0600   97.7200 h1      2  FDE        0.0611
     52 H11        93.3300  100.2800   99.5600 hc      2  FDE        0.0257
     53 H13        93.0800   98.5800   99.9300 hc      2  FDE        0.0257
     54 H14        92.8900  100.7700   97.0600 ho      2  FDE        0.2105
     55 H15        88.4300   96.9900  102.3400 ho      2  FDE        0.2105
     56 H16        88.0900  100.8700  104.4300 h4      2  FDE        0.0902
     57 H17        90.7900  101.2800  104.4100 ha      2  FDE        0.0645
     58 H18        91.5600  100.6800  101.8600 ha      2  FDE        0.0648
     59 O          93.5800   95.7400  104.2200 os      3  FDE       -0.3212
     60 C          92.6400   96.5900  104.7300 cc      3  FDE        0.0455
     61 C3         92.4300   97.7100  103.9700 cd      3  FDE       -0.0364
     62 C4         93.9700   96.4000  103.0800 cc      3  FDE        0.0725
     63 C5         93.3000   97.5800  102.8600 cd      3  FDE       -0.0322
     64 C6         94.9800   95.7700  102.1500 c3      3  FDE        0.0457
     65 N          95.5900   96.6800  101.1500 n3      3  FDE       -0.2919
     66 H          94.4400   94.9600  101.6400 h1      3  FDE        0.0503
     67 H1         95.7600   95.2800  102.7500 h1      3  FDE        0.0503
     68 C7         95.8900   95.9500   99.9000 c3      3  FDE        0.0245
     69 C8         96.7600   97.4600  101.6300 c3      3  FDE        0.0245
     70 C9         96.5900   98.2800  102.9300 c3      3  FDE        0.0639
     71 H2         97.0400   98.1800  100.8500 h1      3  FDE        0.0458
     72 H3         97.6200   96.7900  101.7600 h1      3  FDE        0.0458
     73 C1         97.6600   99.3900  103.0400 c3      3  FDE       -0.0377
     74 H4         98.6700   98.9700  103.0100 hc      3  FDE        0.0257
     75 H5         97.5500   99.9600  103.9700 hc      3  FDE        0.0257
     76 H6         97.5700  100.1000  102.2000 hc      3  FDE        0.0257
     77 O1         96.7200   97.4400  104.0800 oh      3  FDE       -0.3921
     78 H7         95.6100   98.7700  102.9200 h1      3  FDE        0.0611
     79 C10        96.2200   96.8200   98.6600 c3      3  FDE        0.0639
     80 H8         95.0300   95.3200   99.6200 h1      3  FDE        0.0458
     81 H9         96.7300   95.2700  100.0800 h1      3  FDE        0.0458
     82 O2         96.6600   95.9600   97.6100 oh      3  FDE       -0.3921
     83 C2         95.0000   97.6300   98.1600 c3      3  FDE       -0.0377
     84 H10        97.0500   97.5000   98.9000 h1      3  FDE        0.0611
     85 H11        94.1200   97.0000   98.3200 hc      3  FDE        0.0257
     86 H12        95.0800   97.7900   97.0700 hc      3  FDE        0.0257
     87 H14        95.9300   95.3600   97.3900 ho      3  FDE        0.2105
     88 H15        96.4600   97.9600  104.8600 ho      3  FDE        0.2105
     89 H16        92.1800   96.2900  105.6600 h4      3  FDE        0.0902
     90 H17        91.7400   98.5200  104.1600 ha      3  FDE        0.0645
     91 H18        93.4200   98.2700  102.0300 ha      3  FDE        0.0648
     92 O         106.1900  105.2100   95.2400 os      4  FDE       -0.3212
     93 C         107.1100  106.2000   95.4700 cc      4  FDE        0.0455
     94 C3        108.4100  105.7800   95.3900 cd      4  FDE       -0.0364
     95 C4        107.0000  104.1200   95.0400 cc      4  FDE        0.0725
     96 C5        108.3400  104.4000   95.1000 cd      4  FDE       -0.0322
     97 C6        106.3900  102.7700   94.7900 c3      4  FDE        0.0457
     98 N         107.3500  101.6400   94.9900 n3      4  FDE       -0.2919
     99 H         106.0100  102.7600   93.7600 h1      4  FDE        0.0503
    100 H1        105.5200  102.6500   95.4400 h1      4  FDE        0.0503
    101 C7        107.5000  100.8100   93.7800 c3      4  FDE        0.0245
    102 C8        107.1200  100.8700   96.2500 c3      4  FDE        0.0245
    103 C9        107.5300  101.6200   97.5500 c3      4  FDE        0.0639
    104 H2        107.7200   99.9600   96.2300 h1      4  FDE        0.0458
    105 H3        106.0800  100.5500   96.3000 h1      4  FDE        0.0458
    106 C1        107.4000  100.7400   98.8300 c3      4  FDE       -0.0377
    107 H5        107.7600  101.3500   99.6600 hc      4  FDE        0.0257
    108 H6        108.1100   99.9100   98.7300 hc      4  FDE        0.0257
    109 O1        106.8500  102.8600   97.7500 oh      4  FDE       -0.3921
    110 H7        108.6000  101.8500   97.4500 h1      4  FDE        0.0611
    111 C10       108.7800   99.9500   93.7500 c3      4  FDE        0.0639
    112 H8        107.5400  101.4700   92.9000 h1      4  FDE        0.0458
    113 H9        106.6200  100.1700   93.6600 h1      4  FDE        0.0458
    114 O2        108.8400   99.2300   92.5200 oh      4  FDE       -0.3921
    115 C2        110.0700  100.7900   93.9000 c3      4  FDE       -0.0377
    116 H10       108.7500   99.2200   94.5700 h1      4  FDE        0.0611
    117 H11       110.1200  101.5700   93.1400 hc      4  FDE        0.0257
    118 H12       110.9600  100.1600   93.8000 hc      4  FDE        0.0257
    119 H13       110.1100  101.2700   94.8900 hc      4  FDE        0.0257
    120 H14       108.9000   99.8900   91.8000 ho      4  FDE        0.2105
    121 H15       107.2900  103.3400   98.4700 ho      4  FDE        0.2105
    122 H16       106.7100  107.1900   95.6700 h4      4  FDE        0.0902
    123 H17       109.3100  106.3800   95.5300 ha      4  FDE        0.0645
    124 H18       109.1700  103.7100   94.9700 ha      4  FDE        0.0648
    125 O         102.4500  102.7000  103.5900 os      5  FDE       -0.3212
    126 C         101.8200  101.9200  104.5200 cc      5  FDE        0.0455
    127 C3        102.6800  101.2600  105.3700 cd      5  FDE       -0.0364
    128 C4        103.7700  102.4800  103.8900 cc      5  FDE        0.0725
    129 C5        103.9800  101.6400  104.9500 cd      5  FDE       -0.0322
    130 C6        104.8500  103.1400  103.0800 c3      5  FDE        0.0457
    131 N         106.1500  102.4200  103.1100 n3      5  FDE       -0.2919
    132 H         104.9700  104.1600  103.4600 h1      5  FDE        0.0503
    133 H1        104.5000  103.2400  102.0400 h1      5  FDE        0.0503
    134 C7        107.2600  103.3200  103.5000 c3      5  FDE        0.0245
    135 C8        106.4300  101.6300  101.8800 c3      5  FDE        0.0245
    136 C9        105.6900  100.2600  101.7600 c3      5  FDE        0.0639
    137 H2        107.4900  101.3900  101.8300 h1      5  FDE        0.0458
    138 H3        106.2200  102.2500  101.0000 h1      5  FDE        0.0458
    139 C1        106.0500   99.4500  100.4700 c3      5  FDE       -0.0377
    140 H5        105.3500   98.6100  100.4100 hc      5  FDE        0.0257
    141 H6        107.0400   98.9900  100.6300 hc      5  FDE        0.0257
    142 O1        104.2800  100.3700  101.8800 oh      5  FDE       -0.3921
    143 H7        106.0300   99.6600  102.6100 h1      5  FDE        0.0611
    144 C10       108.5500  102.6000  103.9600 c3      5  FDE        0.0639
    145 H8        106.9300  103.9600  104.3400 h1      5  FDE        0.0458
    146 H9        107.5100  103.9900  102.6600 h1      5  FDE        0.0458
    147 O2        109.5400  103.5700  104.3100 oh      5  FDE       -0.3921
    148 C2        108.3000  101.6800  105.1800 c3      5  FDE       -0.0377
    149 H10       108.9500  101.9900  103.1400 h1      5  FDE        0.0611
    150 H11       107.8700  102.2400  106.0200 hc      5  FDE        0.0257
    151 H12       109.2400  101.2200  105.5200 hc      5  FDE        0.0257
    152 H13       107.6100  100.8600  104.9200 hc      5  FDE        0.0257
    153 H14       109.2000  104.0800  105.0700 ho      5  FDE        0.2105
    154 H15       103.9300  100.8400  101.1000 ho      5  FDE        0.2105
    155 H16       100.7400  101.9100  104.4800 h4      5  FDE        0.0902
    156 H17       102.4200  100.5900  106.1800 ha      5  FDE        0.0645
    157 H18       104.9200  101.3100  105.3700 ha      5  FDE        0.0648
@<TRIPOS>BOND
     1     1     2    1
     2     2     3    1
     3     2     4    1
     4     2     5    1
     5     3     6    1
     6     3     7    2
     7     6     8    1
     8     8     9    2
     9     7     9    1
    10     8    10    1
    11    10    11    1
    12    10    12    1
    13    10    13    1
    14    11    14    2
    15    14    15    1
    16    11    16    1
    17    16    17    1
    18    15    17    2
    19    17    18    1
    20    18    19    1
    21    18    20    1
    22    18    21    1
    23     7    22    1
    24     9    23    1
    25    14    24    1
    26    15    25    1
    27    26    27    1
    28    27    28    2
    29    26    29    1
    30    29    30    2
    31    28    30    1
    32    29    31    1
    33    31    32    1
    34    31    33    1
    35    31    34    1
    36    32    35    1
    37    32    36    1
    38    36    37    1
    39    36    38    1
    40    36    39    1
    41    37    40    1
    42    40    41    1
    43    40    42    1
    44    40    43    1
    45    37    44    1
    46    37    45    1
    47    35    46    1
    48    35    47    1
    49    35    48    1
    50    46    49    1
    51    46    50    1
    52    46    51    1
    53    50    52    1
    54    50    53    1
    55    49    54    1
    56    44    55    1
    57    27    56    1
    58    28    57    1
    59    30    58    1
    60     1    50    1
    61    59    60    1
    62    60    61    2
    63    59    62    1
    64    62    63    2
    65    61    63    1
    66    62    64    1
    67    64    65    1
    68    64    66    1
    69    64    67    1
    70    65    68    1
    71    65    69    1
    72    69    70    1
    73    69    71    1
    74    69    72    1
    75    70    73    1
    76    73    74    1
    77    73    75    1
    78    73    76    1
    79    70    77    1
    80    70    78    1
    81    68    79    1
    82    68    80    1
    83    68    81    1
    84    79    82    1
    85    79    83    1
    86    79    84    1
    87    83    85    1
    88    83    86    1
    89    82    87    1
    90    77    88    1
    91    60    89    1
    92    61    90    1
    93    63    91    1
    94     1    83    1
    95    92    93    1
    96    93    94    2
    97    92    95    1
    98    95    96    2
    99    94    96    1
   100    95    97    1
   101    97    98    1
   102    97    99    1
   103    97   100    1
   104    98   101    1
   105    98   102    1
   106   102   103    1
   107   102   104    1
   108   102   105    1
   109   103   106    1
   110   106   107    1
   111   106   108    1
   112   103   109    1
   113   103   110    1
   114   101   111    1
   115   101   112    1
   116   101   113    1
   117   111   114    1
   118   111   115    1
   119   111   116    1
   120   115   117    1
   121   115   118    1
   122   115   119    1
   123   114   120    1
   124   109   121    1
   125    93   122    1
   126    94   123    1
   127    96   124    1
   128    19   106    1
   129   125   126    1
   130   126   127    2
   131   125   128    1
   132   128   129    2
   133   127   129    1
   134   128   130    1
   135   130   131    1
   136   130   132    1
   137   130   133    1
   138   131   134    1
   139   131   135    1
   140   135   136    1
   141   135   137    1
   142   135   138    1
   143   136   139    1
   144   139   140    1
   145   139   141    1
   146   136   142    1
   147   136   143    1
   148   134   144    1
   149   134   145    1
   150   134   146    1
   151   144   147    1
   152   144   148    1
   153   144   149    1
   154   148   150    1
   155   148   151    1
   156   148   152    1
   157   147   153    1
   158   142   154    1
   159   126   155    1
   160   127   156    1
   161   129   157    1
   162    19   139    1
