@<TRIPOS>MOLECULE
DFA+FDE+FDE
    93    96  1  0  0
SMALL
gas

@<TRIPOS>ATOM
      1 N1         99.6300  100.1200   98.2800 n3      1  DFA       -0.3248
      2 C         100.4100  101.1700   97.5900 c3      1  DFA        0.0403
      3 C1        101.8900  101.1200   97.8400 cc      1  DFA        0.0725
      4 H         100.0700  102.1500   97.9300 h1      1  DFA        0.0498
      5 H1        100.2200  101.1300   96.5100 h1      1  DFA        0.0498
      6 O         102.4400  101.8700   98.8400 os      1  DFA       -0.3174
      7 C2        102.8000  100.5500   96.9900 cd      1  DFA       -0.0319
      8 C3        103.7800  101.7400   98.5700 cc      1  DFA        0.0654
      9 C4        104.0700  100.9600   97.4800 cd      1  DFA       -0.0327
     10 C5        104.7800  102.5600   99.3400 c3      1  DFA        0.0418
     11 C6        106.1800  102.0000   99.3200 cc      1  DFA        0.0654
     12 H2        104.4400  102.6600  100.3800 hc      1  DFA        0.0409
     13 H3        104.7900  103.5800   98.9300 hc      1  DFA        0.0409
     14 C7        106.5900  100.9200  100.0600 cd      1  DFA       -0.0327
     15 C8        107.9800  100.8200   99.8000 cd      1  DFA       -0.0319
     16 O1        107.1700  102.6200   98.6100 os      1  DFA       -0.3174
     17 C9        108.2500  101.8500   98.9400 cc      1  DFA        0.0725
     18 C10       109.6200  102.2100   98.4200 c3      1  DFA        0.0403
     19 N2        110.5000  101.0400   98.2600 n3      1  DFA       -0.3248
     20 H4        110.0800  102.9200   99.1200 h1      1  DFA        0.0498
     21 H5        109.5100  102.7100   97.4500 h1      1  DFA        0.0498
     22 H8        110.6500  100.6000   99.1700 hn      1  DFA        0.1188
     23 H9        111.4100  101.3400   97.9300 hn      1  DFA        0.1188
     24 H10       102.6000   99.9700   96.0900 ha      1  DFA        0.0648
     25 H11       105.0400  100.7500   97.0500 ha      1  DFA        0.0648
     26 H12       105.9900  100.3000  100.7100 ha      1  DFA        0.0648
     27 H13       108.6700  100.1000  100.2200 ha      1  DFA        0.0648
     28 O          93.0300  101.7300  101.8900 os      2  FDE       -0.3212
     29 C          93.5000  102.1200  103.1200 cc      2  FDE        0.0455
     30 C3         94.8600  102.3000  103.1600 cd      2  FDE       -0.0364
     31 C4         94.1900  101.6700  101.1600 cc      2  FDE        0.0725
     32 C5         95.3200  102.0100  101.8500 cd      2  FDE       -0.0322
     33 C6         94.1500  101.3700   99.6800 c3      2  FDE        0.0457
     34 N          95.3100  100.5600   99.2200 n3      2  FDE       -0.2919
     35 H          94.1300  102.3400   99.1700 h1      2  FDE        0.0503
     36 H1         93.2100  100.8600   99.4300 h1      2  FDE        0.0503
     37 C7         95.8300  101.0600   97.9200 c3      2  FDE        0.0245
     38 C8         95.1200   99.0900   99.2800 c3      2  FDE        0.0245
     39 C9         94.7200   98.5300  100.6800 c3      2  FDE        0.0639
     40 H2         96.0600   98.5900   99.0000 h1      2  FDE        0.0458
     41 H3         94.3700   98.7800   98.5500 h1      2  FDE        0.0458
     42 C1         95.1900   97.0800  100.8700 c3      2  FDE       -0.0377
     43 H4         94.7400   96.4200  100.1200 hc      2  FDE        0.0257
     44 H5         94.9200   96.7100  101.8600 hc      2  FDE        0.0257
     45 H6         96.2900   97.0100  100.7700 hc      2  FDE        0.0257
     46 O1         93.3000   98.5700  100.8200 oh      2  FDE       -0.3921
     47 H7         95.1900   99.1500  101.4500 h1      2  FDE        0.0611
     48 C10        97.1900  100.4600   97.4800 c3      2  FDE        0.0639
     49 H8         95.9500  102.1400   97.9800 h1      2  FDE        0.0458
     50 H9         95.0900  100.8600   97.1300 h1      2  FDE        0.0458
     51 O2         97.6300  101.1700   96.3200 oh      2  FDE       -0.3921
     52 C2         98.2500  100.5300   98.6300 c3      2  FDE       -0.0377
     53 H10        97.0400   99.4100   97.2100 h1      2  FDE        0.0611
     54 H11        98.2600  101.5400   99.0500 hc      2  FDE        0.0257
     55 H13        97.9000   99.8700   99.4200 hc      2  FDE        0.0257
     56 H14        97.7900  102.1000   96.5900 ho      2  FDE        0.2105
     57 H15        93.1000   98.4500  101.7700 ho      2  FDE        0.2105
     58 H16        92.7600  102.2400  103.9000 h4      2  FDE        0.0902
     59 H17        95.4600  102.6100  104.0100 ha      2  FDE        0.0645
     60 H18        96.3400  102.0600  101.4900 ha      2  FDE        0.0648
     61 O          98.3400   97.2200  103.9100 os      3  FDE       -0.3212
     62 C          97.4100   98.0900  104.4100 cc      3  FDE        0.0455
     63 C3         97.1300   99.1300  103.5700 cd      3  FDE       -0.0364
     64 C4         98.6400   97.7900  102.7000 cc      3  FDE        0.0725
     65 C5         97.9300   98.9300  102.4200 cd      3  FDE       -0.0322
     66 C6         99.5900   97.0900  101.7600 c3      3  FDE        0.0457
     67 N         100.1900   97.9400  100.7000 n3      3  FDE       -0.2919
     68 H          99.0100   96.2800  101.3000 h1      3  FDE        0.0503
     69 H1        100.3900   96.6000  102.3400 h1      3  FDE        0.0503
     70 C7        100.4700   97.1200   99.4900 c3      3  FDE        0.0245
     71 C8        101.3900   98.7400  101.1000 c3      3  FDE        0.0245
     72 C9        101.2600   99.6100  102.3700 c3      3  FDE        0.0639
     73 H2        101.6400   99.4200  100.2800 h1      3  FDE        0.0458
     74 H3        102.2500   98.0700  101.2300 h1      3  FDE        0.0458
     75 C1        102.3200  100.7300  102.3800 c3      3  FDE       -0.0377
     76 H4        103.3400  100.3100  102.3100 hc      3  FDE        0.0257
     77 H5        102.2500  101.3300  103.3000 hc      3  FDE        0.0257
     78 H6        102.1800  101.4100  101.5300 hc      3  FDE        0.0257
     79 O1        101.4500   98.8200  103.5500 oh      3  FDE       -0.3921
     80 H7        100.2800  100.0900  102.3800 h1      3  FDE        0.0611
     81 C10       100.8700   97.9000   98.2100 c3      3  FDE        0.0639
     82 H8         99.5800   96.5300   99.2400 h1      3  FDE        0.0458
     83 H9        101.2700   96.4000   99.7200 h1      3  FDE        0.0458
     84 O2        101.2400   96.9500   97.2100 oh      3  FDE       -0.3921
     85 C2         99.7100   98.7700   97.6700 c3      3  FDE       -0.0377
     86 H10       101.7500   98.5200   98.4100 h1      3  FDE        0.0611
     87 H11        98.7900   98.2100   97.8500 hc      3  FDE        0.0257
     88 H12        99.8000   98.8700   96.5800 hc      3  FDE        0.0257
     89 H14       101.5600   97.4400   96.4300 ho      3  FDE        0.2105
     90 H15       101.1600   99.3500  104.3100 ho      3  FDE        0.2105
     91 H16        97.0200   97.8600  105.3900 h4      3  FDE        0.0902
     92 H17        96.4200   99.9400  103.7400 ha      3  FDE        0.0645
     93 H18        97.9700   99.5400  101.5400 ha      3  FDE        0.0648
@<TRIPOS>BOND
     1     1     2    1
     2     2     3    1
     3     2     4    1
     4     2     5    1
     5     3     6    1
     6     3     7    2
     7     6     8    1
     8     8     9    2
     9     7     9    1
    10     8    10    1
    11    10    11    1
    12    10    12    1
    13    10    13    1
    14    11    14    2
    15    14    15    1
    16    11    16    1
    17    16    17    1
    18    15    17    2
    19    17    18    1
    20    18    19    1
    21    18    20    1
    22    18    21    1
    23    19    22    1
    24    19    23    1
    25     7    24    1
    26     9    25    1
    27    14    26    1
    28    15    27    1
    29    28    29    1
    30    29    30    2
    31    28    31    1
    32    31    32    2
    33    30    32    1
    34    31    33    1
    35    33    34    1
    36    33    35    1
    37    33    36    1
    38    34    37    1
    39    34    38    1
    40    38    39    1
    41    38    40    1
    42    38    41    1
    43    39    42    1
    44    42    43    1
    45    42    44    1
    46    42    45    1
    47    39    46    1
    48    39    47    1
    49    37    48    1
    50    37    49    1
    51    37    50    1
    52    48    51    1
    53    48    52    1
    54    48    53    1
    55    52    54    1
    56    52    55    1
    57    51    56    1
    58    46    57    1
    59    29    58    1
    60    30    59    1
    61    32    60    1
    62     1    52    1
    63    61    62    1
    64    62    63    2
    65    61    64    1
    66    64    65    2
    67    63    65    1
    68    64    66    1
    69    66    67    1
    70    66    68    1
    71    66    69    1
    72    67    70    1
    73    67    71    1
    74    71    72    1
    75    71    73    1
    76    71    74    1
    77    72    75    1
    78    75    76    1
    79    75    77    1
    80    75    78    1
    81    72    79    1
    82    72    80    1
    83    70    81    1
    84    70    82    1
    85    70    83    1
    86    81    84    1
    87    81    85    1
    88    81    86    1
    89    85    87    1
    90    85    88    1
    91    84    89    1
    92    79    90    1
    93    62    91    1
    94    63    92    1
    95    65    93    1
    96     1    85    1
