@<TRIPOS>MOLECULE
DFA+FDE+FDE+FDE
   125   129  1  0  0
SMALL
gas

@<TRIPOS>ATOM
      1 N1         92.2900   99.7200  100.3900 n3      1  DFA       -0.3248
      2 C          93.3300  100.7500  100.2700 c3      1  DFA        0.0403
      3 C1         94.7400  100.2500  100.5000 cc      1  DFA        0.0725
      4 H          93.1400  101.5200  101.0300 h1      1  DFA        0.0498
      5 H1         93.2700  101.2500   99.3000 h1      1  DFA        0.0498
      6 O          95.7900  101.1100  100.3000 os      1  DFA       -0.3174
      7 C2         95.0700   99.0800  101.1300 cd      1  DFA       -0.0319
      8 C3         96.8200  100.4000  100.8600 cc      1  DFA        0.0654
      9 C4         96.4700   99.1800  101.3700 cd      1  DFA       -0.0327
     10 C5         98.1300  101.0900  101.1700 c3      1  DFA        0.0418
     11 C6         99.3500  100.5700  100.4600 cc      1  DFA        0.0654
     12 H2         98.3100  101.0500  102.2500 hc      1  DFA        0.0409
     13 H3         98.0200  102.1600  100.9400 hc      1  DFA        0.0409
     14 C7         99.4800   99.3500   99.8400 cd      1  DFA       -0.0327
     15 C8        100.8400   99.2800   99.4500 cd      1  DFA       -0.0319
     16 O1        100.5100  101.3000  100.5100 os      1  DFA       -0.3174
     17 C9        101.3800  100.4600   99.8700 cc      1  DFA        0.0725
     18 C10       102.8400  100.8400   99.7600 c3      1  DFA        0.0403
     19 N2        103.7000  100.2500  100.8100 n3      1  DFA       -0.3248
     20 H4        102.9200  101.9300   99.7900 h1      1  DFA        0.0498
     21 H5        103.2000  100.5200   98.7800 h1      1  DFA        0.0498
     22 H6         91.3900  100.1800  100.5300 hn      1  DFA        0.1188
     23 H10        94.4100   98.2900  101.4600 ha      1  DFA        0.0648
     24 H11        97.0800   98.4900  101.9400 ha      1  DFA        0.0648
     25 H12        98.7200   98.5800   99.7100 ha      1  DFA        0.0648
     26 H13       101.3400   98.4600   98.9500 ha      1  DFA        0.0648
     27 O          87.1800   96.6700   99.0300 os      2  FDE       -0.3212
     28 C          86.9100   96.5400   97.6900 cc      2  FDE        0.0455
     29 C3         87.8200   95.7600   97.0200 cd      2  FDE       -0.0364
     30 C4         88.3300   95.9300   99.1500 cc      2  FDE        0.0725
     31 C5         88.7600   95.3400   97.9900 cd      2  FDE       -0.0322
     32 C6         88.9800   95.7400  100.5000 c3      2  FDE        0.0457
     33 N          90.4500   95.5700  100.4300 n3      2  FDE       -0.2919
     34 H          88.5100   94.8400  100.9400 h1      2  FDE        0.0503
     35 H1         88.7200   96.5800  101.1600 h1      2  FDE        0.0503
     36 C7         90.9300   94.5200  101.3600 c3      2  FDE        0.0245
     37 C8         91.2300   96.8400  100.5100 c3      2  FDE        0.0245
     38 C9         90.9600   97.8600   99.3700 c3      2  FDE        0.0639
     39 H2         92.3000   96.6000  100.4800 h1      2  FDE        0.0458
     40 H3         91.0500   97.3300  101.4800 h1      2  FDE        0.0458
     41 C1         92.1500   98.8400   99.2100 c3      2  FDE       -0.0377
     42 H5         91.9700   99.4500   98.3200 hc      2  FDE        0.0257
     43 H6         93.0800   98.2800   99.0500 hc      2  FDE        0.0257
     44 O1         89.7700   98.6000   99.6300 oh      2  FDE       -0.3921
     45 H7         90.8600   97.3000   98.4300 h1      2  FDE        0.0611
     46 C10        92.3600   94.0000  101.0600 c3      2  FDE        0.0639
     47 H8         90.2600   93.6600  101.3200 h1      2  FDE        0.0458
     48 H9         90.9000   94.9000  102.3900 h1      2  FDE        0.0458
     49 O2         92.6900   92.9700  101.9900 oh      2  FDE       -0.3921
     50 C2         92.4900   93.4400   99.6200 c3      2  FDE       -0.0377
     51 H10        93.0800   94.8100  101.1800 h1      2  FDE        0.0611
     52 H11        91.7500   92.6500   99.4400 hc      2  FDE        0.0257
     53 H12        93.4900   93.0300   99.4600 hc      2  FDE        0.0257
     54 H13        92.3300   94.2400   98.8800 hc      2  FDE        0.0257
     55 H14        92.0600   92.2300  101.8400 ho      2  FDE        0.2105
     56 H15        89.5000   99.0400   98.8000 ho      2  FDE        0.2105
     57 H16        86.0300   97.0500   97.3300 h4      2  FDE        0.0902
     58 H17        87.8100   95.5000   95.9600 ha      2  FDE        0.0645
     59 H18        89.6200   94.7000   97.8400 ha      2  FDE        0.0648
     60 O         110.0300  102.9700   97.8500 os      3  FDE       -0.3212
     61 C         109.4800  103.5300   96.7300 cc      3  FDE        0.0455
     62 C3        108.1700  103.1800   96.5200 cd      3  FDE       -0.0364
     63 C4        108.9900  102.2200   98.3300 cc      3  FDE        0.0725
     64 C5        107.8400  102.3200   97.5900 cd      3  FDE       -0.0322
     65 C6        109.1300  101.4600   99.6300 c3      3  FDE        0.0457
     66 N         108.1300  100.3700   99.7800 n3      3  FDE       -0.2919
     67 H         109.0100  102.2000  100.4300 h1      3  FDE        0.0503
     68 H1        110.1400  101.0700   99.7200 h1      3  FDE        0.0503
     69 C7        107.6200  100.2700  101.1700 c3      3  FDE        0.0245
     70 C8        108.5500   99.0500   99.2400 c3      3  FDE        0.0245
     71 C9        109.0200   99.0200   97.7600 c3      3  FDE        0.0639
     72 H2        107.7000   98.3500   99.3200 h1      3  FDE        0.0458
     73 H3        109.3500   98.6400   99.8700 h1      3  FDE        0.0458
     74 C1        108.9400   97.6000   97.1800 c3      3  FDE       -0.0377
     75 H4        109.5700   96.9000   97.7600 hc      3  FDE        0.0257
     76 H5        109.2800   97.5800   96.1400 hc      3  FDE        0.0257
     77 H6        107.9100   97.2200   97.2100 hc      3  FDE        0.0257
     78 O1        110.3800   99.4600   97.6600 oh      3  FDE       -0.3921
     79 H7        108.3700   99.6700   97.1700 h1      3  FDE        0.0611
     80 C10       106.2100   99.6500  101.2900 c3      3  FDE        0.0639
     81 H8        107.5500  101.2700  101.6100 h1      3  FDE        0.0458
     82 H9        108.3300   99.7000  101.7800 h1      3  FDE        0.0458
     83 O2        105.9600   99.4400  102.6700 oh      3  FDE       -0.3921
     84 C2        105.1500  100.5500  100.5900 c3      3  FDE       -0.0377
     85 H10       106.2000   98.6700  100.7900 h1      3  FDE        0.0611
     86 H11       105.3400  101.6000  100.8400 hc      3  FDE        0.0257
     87 H13       105.3400  100.4700   99.5100 hc      3  FDE        0.0257
     88 H14       105.7900  100.3000  103.0900 ho      3  FDE        0.2105
     89 H15       110.5700   99.6100   96.7200 ho      3  FDE        0.2105
     90 H16       110.1300  104.1800   96.1500 h4      3  FDE        0.0902
     91 H17       107.5300  103.5000   95.7100 ha      3  FDE        0.0645
     92 H18       106.8800  101.8500   97.7800 ha      3  FDE        0.0648
     93 O          99.8000  104.5900  100.6600 os      4  FDE       -0.3212
     94 C          99.1700  104.2600   99.4900 cc      4  FDE        0.0455
     95 C3        100.0300  103.9500   98.4600 cd      4  FDE       -0.0364
     96 C4        101.1100  104.4600  100.3100 cc      4  FDE        0.0725
     97 C5        101.3300  104.1100   99.0100 cd      4  FDE       -0.0322
     98 C6        102.2100  104.8700  101.2600 c3      4  FDE        0.0457
     99 N         103.1900  103.7800  101.5100 n3      4  FDE       -0.2919
    100 H         101.7600  105.2000  102.2100 h1      4  FDE        0.0503
    101 H1        102.6900  105.7500  100.8300 h1      4  FDE        0.0503
    102 C7        102.7700  102.9600  102.6700 c3      4  FDE        0.0245
    103 C8        104.5900  104.2900  101.5300 c3      4  FDE        0.0245
    104 C9        105.1800  104.4800  100.1100 c3      4  FDE        0.0639
    105 H2        105.2500  103.5800  102.0500 h1      4  FDE        0.0458
    106 H3        104.6500  105.2300  102.0900 h1      4  FDE        0.0458
    107 C1        106.7200  104.5500  100.1500 c3      4  FDE       -0.0377
    108 H4        107.0600  105.3800  100.7900 hc      4  FDE        0.0257
    109 H5        107.1300  104.7000   99.1500 hc      4  FDE        0.0257
    110 H6        107.1400  103.6200  100.5500 hc      4  FDE        0.0257
    111 O1        104.7000  105.6600   99.4800 oh      4  FDE       -0.3921
    112 H7        104.9000  103.6000   99.5000 h1      4  FDE        0.0611
    113 C10       103.6000  101.6800  102.9900 c3      4  FDE        0.0639
    114 H8        101.7200  102.6500  102.5300 h1      4  FDE        0.0458
    115 H9        102.7900  103.6000  103.5600 h1      4  FDE        0.0458
    116 O2        103.4400  101.4000  104.3800 oh      4  FDE       -0.3921
    117 C2        103.1900  100.3900  102.2100 c3      4  FDE       -0.0377
    118 H10       104.6600  101.8700  102.8400 h1      4  FDE        0.0611
    119 H11       102.1000  100.3000  102.2400 hc      4  FDE        0.0257
    120 H12       103.5500   99.5300  102.7800 hc      4  FDE        0.0257
    121 H14       102.5000  101.2000  104.5400 ho      4  FDE        0.2105
    122 H15       105.0700  105.7000   98.5900 ho      4  FDE        0.2105
    123 H16        98.0900  104.2800   99.5000 h4      4  FDE        0.0902
    124 H17        99.7800  103.6800   97.4500 ha      4  FDE        0.0645
    125 H18       102.2800  103.9900   98.5000 ha      4  FDE        0.0648
@<TRIPOS>BOND
     1     1     2    1
     2     2     3    1
     3     2     4    1
     4     2     5    1
     5     3     6    1
     6     3     7    2
     7     6     8    1
     8     8     9    2
     9     7     9    1
    10     8    10    1
    11    10    11    1
    12    10    12    1
    13    10    13    1
    14    11    14    2
    15    14    15    1
    16    11    16    1
    17    16    17    1
    18    15    17    2
    19    17    18    1
    20    18    19    1
    21    18    20    1
    22    18    21    1
    23     1    22    1
    24     7    23    1
    25     9    24    1
    26    14    25    1
    27    15    26    1
    28    27    28    1
    29    28    29    2
    30    27    30    1
    31    30    31    2
    32    29    31    1
    33    30    32    1
    34    32    33    1
    35    32    34    1
    36    32    35    1
    37    33    36    1
    38    33    37    1
    39    37    38    1
    40    37    39    1
    41    37    40    1
    42    38    41    1
    43    41    42    1
    44    41    43    1
    45    38    44    1
    46    38    45    1
    47    36    46    1
    48    36    47    1
    49    36    48    1
    50    46    49    1
    51    46    50    1
    52    46    51    1
    53    50    52    1
    54    50    53    1
    55    50    54    1
    56    49    55    1
    57    44    56    1
    58    28    57    1
    59    29    58    1
    60    31    59    1
    61     1    41    1
    62    60    61    1
    63    61    62    2
    64    60    63    1
    65    63    64    2
    66    62    64    1
    67    63    65    1
    68    65    66    1
    69    65    67    1
    70    65    68    1
    71    66    69    1
    72    66    70    1
    73    70    71    1
    74    70    72    1
    75    70    73    1
    76    71    74    1
    77    74    75    1
    78    74    76    1
    79    74    77    1
    80    71    78    1
    81    71    79    1
    82    69    80    1
    83    69    81    1
    84    69    82    1
    85    80    83    1
    86    80    84    1
    87    80    85    1
    88    84    86    1
    89    84    87    1
    90    83    88    1
    91    78    89    1
    92    61    90    1
    93    62    91    1
    94    64    92    1
    95    19    84    1
    96    93    94    1
    97    94    95    2
    98    93    96    1
    99    96    97    2
   100    95    97    1
   101    96    98    1
   102    98    99    1
   103    98   100    1
   104    98   101    1
   105    99   102    1
   106    99   103    1
   107   103   104    1
   108   103   105    1
   109   103   106    1
   110   104   107    1
   111   107   108    1
   112   107   109    1
   113   107   110    1
   114   104   111    1
   115   104   112    1
   116   102   113    1
   117   102   114    1
   118   102   115    1
   119   113   116    1
   120   113   117    1
   121   113   118    1
   122   117   119    1
   123   117   120    1
   124   116   121    1
   125   111   122    1
   126    94   123    1
   127    95   124    1
   128    97   125    1
   129    19   117    1
