@<TRIPOS>MOLECULE
DFA+FDE+FDE+FDE
   125   129  1  0  0
SMALL
gas

@<TRIPOS>ATOM
      1 N1         95.1600   99.5700  100.3000 n3      1  DFA       -0.3248
      2 C          96.1900  100.4600  100.8900 c3      1  DFA        0.0403
      3 C1         97.6400  100.0800  100.7000 cc      1  DFA        0.0725
      4 H          95.9900  100.5600  101.9700 h1      1  DFA        0.0498
      5 H1         96.1100  101.4600  100.4700 h1      1  DFA        0.0498
      6 O          98.3400  100.6000   99.6500 os      1  DFA       -0.3174
      7 C2         98.4000   99.4300  101.6400 cd      1  DFA       -0.0319
      8 C3         99.6200  100.2600   99.9800 cc      1  DFA        0.0654
      9 C4         99.7300   99.5500  101.1600 cd      1  DFA       -0.0327
     10 C5        100.7500  100.7800   99.1300 c3      1  DFA        0.0418
     11 C6        102.1400  100.3200   99.5100 cc      1  DFA        0.0654
     12 H2        100.7200  101.8700   99.1500 hc      1  DFA        0.0409
     13 H3        100.5600  100.5000   98.0900 hc      1  DFA        0.0409
     14 C7        102.5700   99.0200   99.4900 cd      1  DFA       -0.0327
     15 C8        103.9700   99.1000   99.6700 cd      1  DFA       -0.0319
     16 O1        103.1400  101.2500   99.6800 os      1  DFA       -0.3174
     17 C9        104.2400  100.4400   99.7700 cc      1  DFA        0.0725
     18 C10       105.6200  101.0400   99.7600 c3      1  DFA        0.0403
     19 N2        106.5600  100.3400  100.6500 n3      1  DFA       -0.3248
     20 H4        105.5400  102.0900  100.0700 h1      1  DFA        0.0498
     21 H5        106.0000  101.0200   98.7300 h1      1  DFA        0.0498
     22 H8        106.2100  100.3700  101.6100 hn      1  DFA        0.1188
     23 H10        98.0800   99.0000  102.5800 ha      1  DFA        0.0648
     24 H11       100.6400   99.2100  101.6500 ha      1  DFA        0.0648
     25 H12       101.9800   98.1300   99.3100 ha      1  DFA        0.0648
     26 H13       104.6800   98.2800   99.6600 ha      1  DFA        0.0648
     27 O          90.5800   96.6700   99.2400 os      2  FDE       -0.3212
     28 C          90.1600   96.6300   97.9400 cc      2  FDE        0.0455
     29 C3         90.7700   95.6600   97.1800 cd      2  FDE       -0.0364
     30 C4         91.5200   95.6800   99.2500 cc      2  FDE        0.0725
     31 C5         91.6800   95.0200   98.0600 cd      2  FDE       -0.0322
     32 C6         92.2600   95.3200  100.5100 c3      2  FDE        0.0457
     33 N          93.7300   95.3600  100.3600 n3      2  FDE       -0.2919
     34 H          91.9400   94.3000  100.7800 h1      2  FDE        0.0503
     35 H1         91.9400   95.9700  101.3300 h1      2  FDE        0.0503
     36 C7         94.4200   94.3900  101.2400 c3      2  FDE        0.0245
     37 C8         94.3000   96.7400  100.4400 c3      2  FDE        0.0245
     38 C9         94.7100   97.3500   99.0700 c3      2  FDE        0.0639
     39 H2         95.2000   96.7300  101.0600 h1      2  FDE        0.0458
     40 H3         93.5900   97.4000  100.9400 h1      2  FDE        0.0458
     41 C1         95.5700   98.6400   99.2100 c3      2  FDE       -0.0377
     42 H5         95.6000   99.1700   98.2500 hc      2  FDE        0.0257
     43 H6         96.5900   98.2800   99.3900 hc      2  FDE        0.0257
     44 O1         93.5900   97.5800   98.2200 oh      2  FDE       -0.3921
     45 H7         95.3500   96.6100   98.5600 h1      2  FDE        0.0611
     46 C10        95.8500   94.0500  100.7700 c3      2  FDE        0.0639
     47 H8         93.8500   93.4500  101.2500 h1      2  FDE        0.0458
     48 H9         94.4500   94.7700  102.2600 h1      2  FDE        0.0458
     49 O2         96.4600   93.1800  101.7200 oh      2  FDE       -0.3921
     50 C2         95.8700   93.3700   99.3800 c3      2  FDE       -0.0377
     51 H10        96.4400   94.9700  100.7100 h1      2  FDE        0.0611
     52 H11        95.2500   92.4600   99.3800 hc      2  FDE        0.0257
     53 H12        96.8900   93.0900   99.0900 hc      2  FDE        0.0257
     54 H13        95.4700   94.0400   98.6100 hc      2  FDE        0.0257
     55 H14        95.9500   92.3500  101.7300 ho      2  FDE        0.2105
     56 H15        92.9800   98.1900   98.6800 ho      2  FDE        0.2105
     57 H16        89.3900   97.3400   97.6600 h4      2  FDE        0.0902
     58 H17        90.6100   95.4300   96.1400 ha      2  FDE        0.0645
     59 H18        92.3600   94.2100   97.8400 ha      2  FDE        0.0648
     60 O          97.2600  105.3500  101.3800 os      3  FDE       -0.3212
     61 C          97.7900  105.1300  102.6300 cc      3  FDE        0.0455
     62 C3         97.2000  104.0900  103.3000 cd      3  FDE       -0.0364
     63 C4         96.3000  104.3800  101.3100 cc      3  FDE        0.0725
     64 C5         96.2100  103.5800  102.4200 cd      3  FDE       -0.0322
     65 C6         95.5200  104.2000  100.0200 c3      3  FDE        0.0457
     66 N          94.3600  103.2700  100.1300 n3      3  FDE       -0.2919
     67 H          96.2400  103.8100   99.2900 h1      3  FDE        0.0503
     68 H1         95.1900  105.1700   99.6500 h1      3  FDE        0.0503
     69 C7         94.2700  102.3800   98.9400 c3      3  FDE        0.0245
     70 C8         93.0700  103.9100  100.4900 c3      3  FDE        0.0245
     71 C9         93.0600  104.7500  101.8000 c3      3  FDE        0.0639
     72 H2         92.3100  103.1300  100.6200 h1      3  FDE        0.0458
     73 H3         92.7300  104.5500   99.6600 h1      3  FDE        0.0458
     74 C1         91.6200  104.9300  102.3300 c3      3  FDE       -0.0377
     75 H4         90.9900  105.4400  101.6000 hc      3  FDE        0.0257
     76 H5         91.6200  105.5300  103.2600 hc      3  FDE        0.0257
     77 H6         91.1700  103.9600  102.5600 hc      3  FDE        0.0257
     78 O1         93.6000  106.0500  101.5700 oh      3  FDE       -0.3921
     79 H7         93.6400  104.2300  102.5600 h1      3  FDE        0.0611
     80 C10        93.3800  101.1200   99.1300 c3      3  FDE        0.0639
     81 H8         95.2600  102.0400   98.6500 h1      3  FDE        0.0458
     82 H9         93.8700  102.9600   98.1000 h1      3  FDE        0.0458
     83 O2         93.3000  100.4400   97.8800 oh      3  FDE       -0.3921
     84 C2         93.7800  100.1500  100.2900 c3      3  FDE       -0.0377
     85 H10        92.3700  101.4700   99.3600 h1      3  FDE        0.0611
     86 H12        93.0500   99.3400  100.2800 hc      3  FDE        0.0257
     87 H13        93.6300  100.6800  101.2300 hc      3  FDE        0.0257
     88 H14        94.1200   99.9300   97.7700 ho      3  FDE        0.2105
     89 H15        93.7400  106.4800  102.4300 ho      3  FDE        0.2105
     90 H16        98.5900  105.7800  102.9300 h4      3  FDE        0.0902
     91 H17        97.4400  103.7200  104.2900 ha      3  FDE        0.0645
     92 H18        95.5500  102.7500  102.5900 ha      3  FDE        0.0648
     93 O         113.1900  102.7100   97.9900 os      4  FDE       -0.3212
     94 C         112.7400  103.2900   96.8200 cc      4  FDE        0.0455
     95 C3        111.3800  103.4000   96.7500 cd      4  FDE       -0.0364
     96 C4        112.0100  102.4700   98.6400 cc      4  FDE        0.0725
     97 C5        110.8900  102.8700   97.9700 cd      4  FDE       -0.0322
     98 C6        112.0000  101.8400  100.0200 c3      4  FDE        0.0457
     99 N         110.9300  100.8300  100.1800 n3      4  FDE       -0.2919
    100 H         111.8600  102.6600  100.7300 h1      4  FDE        0.0503
    101 H1        112.9800  101.4000  100.2400 h1      4  FDE        0.0503
    102 C7        110.3000  100.8800  101.5200 c3      4  FDE        0.0245
    103 C8        111.2700   99.4500   99.7400 c3      4  FDE        0.0245
    104 C9        111.8700   99.3200   98.3100 c3      4  FDE        0.0639
    105 H2        110.3600   98.8400   99.7600 h1      4  FDE        0.0458
    106 H3        111.9700   99.0000  100.4500 h1      4  FDE        0.0458
    107 C1        111.6200   97.9100   97.7300 c3      4  FDE       -0.0377
    108 H4        112.0700   97.1400   98.3600 hc      4  FDE        0.0257
    109 H5        112.0600   97.8300   96.7200 hc      4  FDE        0.0257
    110 H6        110.5500   97.7100   97.6500 hc      4  FDE        0.0257
    111 O1        113.2800   99.5300   98.3500 oh      4  FDE       -0.3921
    112 H7        111.3900  100.0500   97.6500 h1      4  FDE        0.0611
    113 C10       108.8900  100.2300  101.5800 c3      4  FDE        0.0639
    114 H8        110.2000  101.9200  101.8400 h1      4  FDE        0.0458
    115 H9        110.9600  100.3800  102.2500 h1      4  FDE        0.0458
    116 O2        108.4100  100.3200  102.9200 oh      4  FDE       -0.3921
    117 C2        107.9100  100.9400  100.6200 c3      4  FDE       -0.0377
    118 H10       108.9600   99.1700  101.3100 h1      4  FDE        0.0611
    119 H11       107.8600  102.0000  100.8800 hc      4  FDE        0.0257
    120 H13       108.3100  100.8700   99.5900 hc      4  FDE        0.0257
    121 H14       108.3000  101.2700  103.1300 ho      4  FDE        0.2105
    122 H15       113.5500   99.9000   97.4900 ho      4  FDE        0.2105
    123 H16       113.5000  103.5800   96.1100 h4      4  FDE        0.0902
    124 H17       110.7900  103.8200   95.9400 ha      4  FDE        0.0645
    125 H18       109.8600  102.7800   98.2800 ha      4  FDE        0.0648
@<TRIPOS>BOND
     1     1     2    1
     2     2     3    1
     3     2     4    1
     4     2     5    1
     5     3     6    1
     6     3     7    2
     7     6     8    1
     8     8     9    2
     9     7     9    1
    10     8    10    1
    11    10    11    1
    12    10    12    1
    13    10    13    1
    14    11    14    2
    15    14    15    1
    16    11    16    1
    17    16    17    1
    18    15    17    2
    19    17    18    1
    20    18    19    1
    21    18    20    1
    22    18    21    1
    23    19    22    1
    24     7    23    1
    25     9    24    1
    26    14    25    1
    27    15    26    1
    28    27    28    1
    29    28    29    2
    30    27    30    1
    31    30    31    2
    32    29    31    1
    33    30    32    1
    34    32    33    1
    35    32    34    1
    36    32    35    1
    37    33    36    1
    38    33    37    1
    39    37    38    1
    40    37    39    1
    41    37    40    1
    42    38    41    1
    43    41    42    1
    44    41    43    1
    45    38    44    1
    46    38    45    1
    47    36    46    1
    48    36    47    1
    49    36    48    1
    50    46    49    1
    51    46    50    1
    52    46    51    1
    53    50    52    1
    54    50    53    1
    55    50    54    1
    56    49    55    1
    57    44    56    1
    58    28    57    1
    59    29    58    1
    60    31    59    1
    61     1    41    1
    62    60    61    1
    63    61    62    2
    64    60    63    1
    65    63    64    2
    66    62    64    1
    67    63    65    1
    68    65    66    1
    69    65    67    1
    70    65    68    1
    71    66    69    1
    72    66    70    1
    73    70    71    1
    74    70    72    1
    75    70    73    1
    76    71    74    1
    77    74    75    1
    78    74    76    1
    79    74    77    1
    80    71    78    1
    81    71    79    1
    82    69    80    1
    83    69    81    1
    84    69    82    1
    85    80    83    1
    86    80    84    1
    87    80    85    1
    88    84    86    1
    89    84    87    1
    90    83    88    1
    91    78    89    1
    92    61    90    1
    93    62    91    1
    94    64    92    1
    95     1    84    1
    96    93    94    1
    97    94    95    2
    98    93    96    1
    99    96    97    2
   100    95    97    1
   101    96    98    1
   102    98    99    1
   103    98   100    1
   104    98   101    1
   105    99   102    1
   106    99   103    1
   107   103   104    1
   108   103   105    1
   109   103   106    1
   110   104   107    1
   111   107   108    1
   112   107   109    1
   113   107   110    1
   114   104   111    1
   115   104   112    1
   116   102   113    1
   117   102   114    1
   118   102   115    1
   119   113   116    1
   120   113   117    1
   121   113   118    1
   122   117   119    1
   123   117   120    1
   124   116   121    1
   125   111   122    1
   126    94   123    1
   127    95   124    1
   128    97   125    1
   129    19   117    1
