@<TRIPOS>MOLECULE
DFA+FDE
    61    63  1  0  0
SMALL
gas

@<TRIPOS>ATOM
      1 N1         99.6800   99.7300   98.9700 n3      1  DFA       -0.3248
      2 C         100.5900  100.3700   99.9400 c3      1  DFA        0.0403
      3 C1        102.0300  100.3300   99.4800 cc      1  DFA        0.0725
      4 H         100.5100   99.8800  100.9100 h1      1  DFA        0.0498
      5 H1        100.3100  101.4200  100.0700 h1      1  DFA        0.0498
      6 O         102.8400  101.4200   99.6800 os      1  DFA       -0.3174
      7 C2        102.6200   99.2900   98.8000 cd      1  DFA       -0.0319
      8 C3        103.9900  101.0000   99.0700 cc      1  DFA        0.0654
      9 C4        103.9300   99.7400   98.5200 cd      1  DFA       -0.0327
     10 C5        105.1700  101.9300   98.9600 c3      1  DFA        0.0418
     11 C6        106.5000  101.3100   99.3000 cc      1  DFA        0.0654
     12 H2        105.0100  102.8000   99.6100 hc      1  DFA        0.0409
     13 H3        105.2100  102.3300   97.9400 hc      1  DFA        0.0409
     14 C7        106.7000  100.3500  100.2600 cd      1  DFA       -0.0327
     15 C8        108.1000  100.1500  100.2800 cd      1  DFA       -0.0319
     16 O1        107.6400  101.7600   98.6900 os      1  DFA       -0.3174
     17 C9        108.5900  101.0100   99.3300 cc      1  DFA        0.0725
     18 C10       110.0500  101.2400   99.0300 c3      1  DFA        0.0403
     19 N2        110.8400   99.9900   99.0900 n3      1  DFA       -0.3248
     20 H4        110.4500  101.9600   99.7500 h1      1  DFA        0.0498
     21 H5        110.1500  101.6700   98.0300 h1      1  DFA        0.0498
     22 H7         99.9000  100.0800   98.0300 hn      1  DFA        0.1188
     23 H8        110.8000   99.6200  100.0400 hn      1  DFA        0.1188
     24 H9        111.8200  100.2000   98.9000 hn      1  DFA        0.1188
     25 H10       102.1700   98.3500   98.5100 ha      1  DFA        0.0648
     26 H11       104.7000   99.2200   97.9700 ha      1  DFA        0.0648
     27 H12       105.9600   99.8700  100.8900 ha      1  DFA        0.0648
     28 H13       108.6600   99.4800  100.9200 ha      1  DFA        0.0648
     29 O          92.8500  101.2300  101.9600 os      2  FDE       -0.3212
     30 C          93.2500  101.8300  103.1300 cc      2  FDE        0.0455
     31 C3         94.6100  101.9900  103.2300 cd      2  FDE       -0.0364
     32 C4         94.0500  101.0100  101.3400 cc      2  FDE        0.0725
     33 C5         95.1400  101.4500  102.0300 cd      2  FDE       -0.0322
     34 C6         94.1000  100.4000   99.9600 c3      2  FDE        0.0457
     35 N          95.3000   99.5600   99.7300 n3      2  FDE       -0.2919
     36 H          94.0700  101.2400   99.2500 h1      2  FDE        0.0503
     37 H1         93.1900   99.8100   99.7700 h1      2  FDE        0.0503
     38 C7         95.8600   99.7500   98.3700 c3      2  FDE        0.0245
     39 C8         95.1900   98.1300  100.1300 c3      2  FDE        0.0245
     40 C9         94.7000   97.8700  101.5800 c3      2  FDE        0.0639
     41 H2         96.1700   97.6600  100.0300 h1      2  FDE        0.0458
     42 H3         94.5100   97.6200   99.4400 h1      2  FDE        0.0458
     43 C1         95.1500   96.4900  102.0800 c3      2  FDE       -0.0377
     44 H4         94.7500   95.6900  101.4400 hc      2  FDE        0.0257
     45 H5         94.8000   96.3100  103.1000 hc      2  FDE        0.0257
     46 H6         96.2500   96.4100  102.0800 hc      2  FDE        0.0257
     47 O1         93.2700   97.9200  101.6400 oh      2  FDE       -0.3921
     48 H7         95.1300   98.6300  102.2400 h1      2  FDE        0.0611
     49 C10        97.3300   99.2900   98.2100 c3      2  FDE        0.0639
     50 H8         95.8300  100.8200   98.1100 h1      2  FDE        0.0458
     51 H9         95.2400   99.2200   97.6400 h1      2  FDE        0.0458
     52 O2         97.7600   99.6000   96.8800 oh      2  FDE       -0.3921
     53 C2         98.2600   99.9800   99.2400 c3      2  FDE       -0.0377
     54 H10        97.3900   98.2100   98.3500 h1      2  FDE        0.0611
     55 H11        98.0700  101.0600   99.2200 hc      2  FDE        0.0257
     56 H13        98.0100   99.6100  100.2500 hc      2  FDE        0.0257
     57 H14        97.7700  100.5700   96.7900 ho      2  FDE        0.2105
     58 H15        93.0200   98.0400  102.5700 ho      2  FDE        0.2105
     59 H16        92.4700  102.1200  103.8100 h4      2  FDE        0.0902
     60 H17        95.1700  102.4400  104.0400 ha      2  FDE        0.0645
     61 H18        96.1900  101.4000  101.7300 ha      2  FDE        0.0648
@<TRIPOS>BOND
     1     1     2    1
     2     2     3    1
     3     2     4    1
     4     2     5    1
     5     3     6    1
     6     3     7    2
     7     6     8    1
     8     8     9    2
     9     7     9    1
    10     8    10    1
    11    10    11    1
    12    10    12    1
    13    10    13    1
    14    11    14    2
    15    14    15    1
    16    11    16    1
    17    16    17    1
    18    15    17    2
    19    17    18    1
    20    18    19    1
    21    18    20    1
    22    18    21    1
    23     1    22    1
    24    19    23    1
    25    19    24    1
    26     7    25    1
    27     9    26    1
    28    14    27    1
    29    15    28    1
    30    29    30    1
    31    30    31    2
    32    29    32    1
    33    32    33    2
    34    31    33    1
    35    32    34    1
    36    34    35    1
    37    34    36    1
    38    34    37    1
    39    35    38    1
    40    35    39    1
    41    39    40    1
    42    39    41    1
    43    39    42    1
    44    40    43    1
    45    43    44    1
    46    43    45    1
    47    43    46    1
    48    40    47    1
    49    40    48    1
    50    38    49    1
    51    38    50    1
    52    38    51    1
    53    49    52    1
    54    49    53    1
    55    49    54    1
    56    53    55    1
    57    53    56    1
    58    52    57    1
    59    47    58    1
    60    30    59    1
    61    31    60    1
    62    33    61    1
    63     1    53    1
