@<TRIPOS>MOLECULE
DFA+FDE
    61    63  1  0  0
SMALL
gas

@<TRIPOS>ATOM
      1 N1         90.5400   97.5000  101.6800 n3      1  DFA       -0.3248
      2 C          91.1700   98.6800  102.2800 c3      1  DFA        0.0403
      3 C1         92.6700   98.6000  102.2400 cc      1  DFA        0.0725
      4 H          90.8500   98.7800  103.3300 h1      1  DFA        0.0498
      5 H1         90.8500   99.5900  101.7400 h1      1  DFA        0.0498
      6 O          93.4000   99.4600  101.4600 os      1  DFA       -0.3174
      7 C2         93.4200   97.7100  102.9600 cd      1  DFA       -0.0319
      8 C3         94.6800   99.0700  101.7600 cc      1  DFA        0.0654
      9 C4         94.7600   98.0200  102.6500 cd      1  DFA       -0.0327
     10 C5         95.8400   99.8000  101.1300 c3      1  DFA        0.0418
     11 C6         97.1900   99.1900  101.3900 cc      1  DFA        0.0654
     12 H2         95.8300  100.8300  101.5000 hc      1  DFA        0.0409
     13 H3         95.6800   99.8700  100.0500 hc      1  DFA        0.0409
     14 C7         97.6000   97.9700  100.9200 cd      1  DFA       -0.0327
     15 C8         98.9800   97.9100  101.2300 cd      1  DFA       -0.0319
     16 O1         98.1800   99.9300  101.9800 os      1  DFA       -0.3174
     17 C9         99.2600   99.1000  101.8500 cc      1  DFA        0.0725
     18 C10       100.6300   99.6200  102.2100 c3      1  DFA        0.0403
     19 N2        101.7200   98.7200  101.7600 n3      1  DFA       -0.3248
     20 H4        100.6900   99.7700  103.2900 h1      1  DFA        0.0498
     21 H5        100.7200  100.6000  101.7300 h1      1  DFA        0.0498
     22 H6         89.5300   97.6200  101.6800 hn      1  DFA        0.1188
     23 H7         90.8300   97.4400  100.7000 hn      1  DFA        0.1188
     24 H8        101.7300   97.9000  102.3600 hn      1  DFA        0.1188
     25 H10        93.0600   96.9400  103.6400 ha      1  DFA        0.0648
     26 H11        95.6500   97.5500  103.0400 ha      1  DFA        0.0648
     27 H12        97.0200   97.2400  100.3700 ha      1  DFA        0.0648
     28 H13        99.6700   97.1100  100.9700 ha      1  DFA        0.0648
     29 O         102.0800  104.3800   98.4100 os      2  FDE       -0.3212
     30 C         103.0700  105.3100   98.6600 cc      2  FDE        0.0455
     31 C3        104.3300  104.7800   98.6600 cd      2  FDE       -0.0364
     32 C4        102.8100  103.2300   98.2600 cc      2  FDE        0.0725
     33 C5        104.1700  103.3900   98.3900 cd      2  FDE       -0.0322
     34 C6        102.1000  101.9300   98.0000 c3      2  FDE        0.0457
     35 N         102.9900  100.7400   98.0600 n3      2  FDE       -0.2919
     36 H         101.6300  102.0000   97.0100 h1      2  FDE        0.0503
     37 H1        101.2800  101.8300   98.7200 h1      2  FDE        0.0503
     38 C7        103.0800  100.0400   96.7600 c3      2  FDE        0.0245
     39 C8        102.7100   99.8600   99.2300 c3      2  FDE        0.0245
     40 C9        103.2900  100.3600  100.5800 c3      2  FDE        0.0639
     41 H2        103.1400   98.8700   99.0600 h1      2  FDE        0.0458
     42 H3        101.6300   99.7100   99.3200 h1      2  FDE        0.0458
     43 C1        103.0800   99.3200  101.7100 c3      2  FDE       -0.0377
     44 H5        103.3300   99.7700  102.6800 hc      2  FDE        0.0257
     45 H6        103.7900   98.5000  101.5500 hc      2  FDE        0.0257
     46 O1        102.7600  101.6300  100.9700 oh      2  FDE       -0.3921
     47 H7        104.3700  100.4700  100.4400 h1      2  FDE        0.0611
     48 C10       104.3000   99.0900   96.6300 c3      2  FDE        0.0639
     49 H8        103.1600  100.7800   95.9600 h1      2  FDE        0.0458
     50 H9        102.1600   99.4600   96.5900 h1      2  FDE        0.0458
     51 O2        104.2700   98.4600   95.3500 oh      2  FDE       -0.3921
     52 C2        105.6400   99.8400   96.7900 c3      2  FDE       -0.0377
     53 H10       104.2500   98.3100   97.4000 h1      2  FDE        0.0611
     54 H11       105.7300  100.6600   96.0700 hc      2  FDE        0.0257
     55 H12       106.4900   99.1500   96.6400 hc      2  FDE        0.0257
     56 H13       105.7400  100.2600   97.8000 hc      2  FDE        0.0257
     57 H14       104.3600   99.1600   94.6800 ho      2  FDE        0.2105
     58 H15       103.2600  101.9300  101.7500 ho      2  FDE        0.2105
     59 H16       102.7400  106.3200   98.8300 h4      2  FDE        0.0902
     60 H17       105.2700  105.3000   98.8300 ha      2  FDE        0.0645
     61 H18       104.9400  102.6400   98.3300 ha      2  FDE        0.0648
@<TRIPOS>BOND
     1     1     2    1
     2     2     3    1
     3     2     4    1
     4     2     5    1
     5     3     6    1
     6     3     7    2
     7     6     8    1
     8     8     9    2
     9     7     9    1
    10     8    10    1
    11    10    11    1
    12    10    12    1
    13    10    13    1
    14    11    14    2
    15    14    15    1
    16    11    16    1
    17    16    17    1
    18    15    17    2
    19    17    18    1
    20    18    19    1
    21    18    20    1
    22    18    21    1
    23     1    22    1
    24     1    23    1
    25    19    24    1
    26     7    25    1
    27     9    26    1
    28    14    27    1
    29    15    28    1
    30    29    30    1
    31    30    31    2
    32    29    32    1
    33    32    33    2
    34    31    33    1
    35    32    34    1
    36    34    35    1
    37    34    36    1
    38    34    37    1
    39    35    38    1
    40    35    39    1
    41    39    40    1
    42    39    41    1
    43    39    42    1
    44    40    43    1
    45    43    44    1
    46    43    45    1
    47    40    46    1
    48    40    47    1
    49    38    48    1
    50    38    49    1
    51    38    50    1
    52    48    51    1
    53    48    52    1
    54    48    53    1
    55    52    54    1
    56    52    55    1
    57    52    56    1
    58    51    57    1
    59    46    58    1
    60    30    59    1
    61    31    60    1
    62    33    61    1
    63    19    43    1
