@<TRIPOS>MOLECULE
FDE+DFA+DFA
    88    92  1  0  0
SMALL
gas

@<TRIPOS>ATOM
      1 O          98.1600  101.2100   98.7900 os      1  FDE       -0.3212
      2 C          97.5400  100.8900   99.9700 cc      1  FDE        0.0455
      3 C3         98.4000  100.5700  100.9900 cd      1  FDE       -0.0364
      4 C4         99.4800  101.0500   99.1200 cc      1  FDE        0.0725
      5 C5         99.7000  100.6900  100.4200 cd      1  FDE       -0.0322
      6 C6        100.5600  101.3000   98.1000 c3      1  FDE        0.0457
      7 N         101.8000  100.5200   98.3500 n3      1  FDE       -0.2919
      8 H         100.7700  102.3800   98.1300 h1      1  FDE        0.0503
      9 H1        100.1800  101.0900   97.0900 h1      1  FDE        0.0503
     10 C7        103.0300  101.3200   98.1300 c3      1  FDE        0.0245
     11 C8        101.8500   99.1600   97.7300 c3      1  FDE        0.0245
     12 C9        100.6800   98.2100   98.0900 c3      1  FDE        0.0639
     13 H2        102.7800   98.6700   98.0400 h1      1  FDE        0.0458
     14 H3        101.9000   99.2600   96.6400 h1      1  FDE        0.0458
     15 C1        101.0300   96.7200   97.8900 c3      1  FDE       -0.0377
     16 H5        100.2100   96.1100   98.2800 hc      1  FDE        0.0257
     17 H6        101.9000   96.4900   98.5100 hc      1  FDE        0.0257
     18 O1         99.5100   98.5700   97.3500 oh      1  FDE       -0.3921
     19 H7        100.4700   98.3400   99.1600 h1      1  FDE        0.0611
     20 C10       104.2400  100.8100   98.9400 c3      1  FDE        0.0639
     21 H8        102.8500  102.3600   98.4400 h1      1  FDE        0.0458
     22 H9        103.2800  101.3300   97.0600 h1      1  FDE        0.0458
     23 O2        105.3500  101.6800   98.6800 oh      1  FDE       -0.3921
     24 C2        103.9300  100.7700  100.4600 c3      1  FDE       -0.0377
     25 H10       104.5000   99.8000   98.6100 h1      1  FDE        0.0611
     26 H11       103.5300  101.7500  100.7700 hc      1  FDE        0.0257
     27 H13       103.1500  100.0200  100.6400 hc      1  FDE        0.0257
     28 H14       105.1900  102.5100   99.1600 ho      1  FDE        0.2105
     29 H15        98.9000   97.8100   97.3600 ho      1  FDE        0.2105
     30 H16        96.4600  100.9300   99.9600 h4      1  FDE        0.0902
     31 H17        98.1500  100.2900  102.0000 ha      1  FDE        0.0645
     32 H18       100.6500  100.5100  100.9200 ha      1  FDE        0.0648
     33 N1         90.1200   95.6500   96.6000 n3      2  DFA       -0.3248
     34 C          91.0800   96.4800   95.8600 c3      2  DFA        0.0403
     35 C1         92.4900   95.9700   96.0200 cc      2  DFA        0.0725
     36 H          91.0300   97.5100   96.2200 h1      2  DFA        0.0498
     37 H1         90.8300   96.4900   94.7900 h1      2  DFA        0.0498
     38 O          93.4000   96.6500   96.7900 os      2  DFA       -0.3174
     39 C2         92.9600   94.8100   95.4600 cd      2  DFA       -0.0319
     40 C3         94.5000   95.8400   96.6700 cc      2  DFA        0.0654
     41 C4         94.3100   94.7200   95.8900 cd      2  DFA       -0.0327
     42 C5         95.7500   96.1700   97.4300 c3      2  DFA        0.0418
     43 C6         97.0300   95.6600   96.8100 cc      2  DFA        0.0654
     44 H2         95.6600   95.7900   98.4500 hc      2  DFA        0.0409
     45 H3         95.8300   97.2600   97.5400 hc      2  DFA        0.0409
     46 C7         97.5200   94.3900   96.9800 cd      2  DFA       -0.0327
     47 C8         98.8200   94.4300   96.4100 cd      2  DFA       -0.0319
     48 O1         97.8800   96.5200   96.1800 os      2  DFA       -0.3174
     49 C9         98.9700   95.7200   95.9800 cc      2  DFA        0.0725
     50 C10       100.2700   96.3200   95.4900 c3      2  DFA        0.0403
     51 N2        101.3500   96.2900   96.5000 n3      2  DFA       -0.3248
     52 H4        100.0800   97.3600   95.1800 h1      2  DFA        0.0498
     53 H5        100.6000   95.7800   94.5900 h1      2  DFA        0.0498
     54 H6         89.1800   96.0100   96.4500 hn      2  DFA        0.1188
     55 H7         90.1400   94.7000   96.2300 hn      2  DFA        0.1188
     56 H9        102.1600   96.8100   96.1500 hn      2  DFA        0.1188
     57 H10        92.4300   94.1100   94.8300 ha      2  DFA        0.0648
     58 H11        95.0200   93.9300   95.6700 ha      2  DFA        0.0648
     59 H12        97.0600   93.5600   97.5000 ha      2  DFA        0.0648
     60 H13        99.5600   93.6400   96.4100 ha      2  DFA        0.0648
     61 N1        102.2300  108.8900  107.1300 n3      3  DFA       -0.3248
     62 C         101.6200  107.6600  107.6500 c3      3  DFA        0.0403
     63 C1        101.6700  106.5400  106.6500 cc      3  DFA        0.0725
     64 H         100.5700  107.8500  107.9200 h1      3  DFA        0.0498
     65 H1        102.1500  107.3500  108.5600 h1      3  DFA        0.0498
     66 O         102.1800  105.3200  107.0000 os      3  DFA       -0.3174
     67 C2        101.1700  106.6200  105.3800 cd      3  DFA       -0.0319
     68 C3        101.9600  104.6100  105.8500 cc      3  DFA        0.0654
     69 C4        101.3600  105.3200  104.8400 cd      3  DFA       -0.0327
     70 C5        102.2700  103.1400  105.7800 c3      3  DFA        0.0418
     71 C6        103.2600  102.7500  104.7000 cc      3  DFA        0.0654
     72 H2        101.3400  102.5800  105.6400 hc      3  DFA        0.0409
     73 H3        102.6700  102.8100  106.7500 hc      3  DFA        0.0409
     74 C7        104.2600  103.5600  104.2300 cd      3  DFA       -0.0327
     75 C8        104.9900  102.7300  103.3400 cd      3  DFA       -0.0319
     76 O1        103.2600  101.4700  104.2100 os      3  DFA       -0.3174
     77 C9        104.3500  101.5200  103.3800 cc      3  DFA        0.0725
     78 C10       104.8500  100.2700  102.7100 c3      3  DFA        0.0403
     79 N2        105.1100  100.4400  101.2700 n3      3  DFA       -0.3248
     80 H4        104.1100   99.4700  102.8500 h1      3  DFA        0.0498
     81 H5        105.7700   99.9500  103.2100 h1      3  DFA        0.0498
     82 H6        102.2000  109.6200  107.8500 hn      3  DFA        0.1188
     83 H7        103.2100  108.7300  106.9200 hn      3  DFA        0.1188
     84 H9        105.5200   99.5800  100.9000 hn      3  DFA        0.1188
     85 H10       100.7000  107.4700  104.9000 ha      3  DFA        0.0648
     86 H11       101.0600  104.9600  103.8600 ha      3  DFA        0.0648
     87 H12       104.4800  104.5900  104.5000 ha      3  DFA        0.0648
     88 H13       105.8900  102.9900  102.7800 ha      3  DFA        0.0648
@<TRIPOS>BOND
     1     1     2    1
     2     2     3    2
     3     1     4    1
     4     4     5    2
     5     3     5    1
     6     4     6    1
     7     6     7    1
     8     6     8    1
     9     6     9    1
    10     7    10    1
    11     7    11    1
    12    11    12    1
    13    11    13    1
    14    11    14    1
    15    12    15    1
    16    15    16    1
    17    15    17    1
    18    12    18    1
    19    12    19    1
    20    10    20    1
    21    10    21    1
    22    10    22    1
    23    20    23    1
    24    20    24    1
    25    20    25    1
    26    24    26    1
    27    24    27    1
    28    23    28    1
    29    18    29    1
    30     2    30    1
    31     3    31    1
    32     5    32    1
    33    33    34    1
    34    34    35    1
    35    34    36    1
    36    34    37    1
    37    35    38    1
    38    35    39    2
    39    38    40    1
    40    40    41    2
    41    39    41    1
    42    40    42    1
    43    42    43    1
    44    42    44    1
    45    42    45    1
    46    43    46    2
    47    46    47    1
    48    43    48    1
    49    48    49    1
    50    47    49    2
    51    49    50    1
    52    50    51    1
    53    50    52    1
    54    50    53    1
    55    33    54    1
    56    33    55    1
    57    51    56    1
    58    39    57    1
    59    41    58    1
    60    46    59    1
    61    47    60    1
    62    15    51    1
    63    61    62    1
    64    62    63    1
    65    62    64    1
    66    62    65    1
    67    63    66    1
    68    63    67    2
    69    66    68    1
    70    68    69    2
    71    67    69    1
    72    68    70    1
    73    70    71    1
    74    70    72    1
    75    70    73    1
    76    71    74    2
    77    74    75    1
    78    71    76    1
    79    76    77    1
    80    75    77    2
    81    77    78    1
    82    78    79    1
    83    78    80    1
    84    78    81    1
    85    61    82    1
    86    61    83    1
    87    79    84    1
    88    67    85    1
    89    69    86    1
    90    74    87    1
    91    75    88    1
    92    24    79    1
