@<TRIPOS>MOLECULE
FDE+DFA+DFA
    88    92  1  0  0
SMALL
gas

@<TRIPOS>ATOM
      1 O          97.3400  104.2300  100.9500 os      1  FDE       -0.3212
      2 C          96.7200  104.0300  102.1500 cc      1  FDE        0.0455
      3 C3         97.5200  103.4500  103.1000 cd      1  FDE       -0.0364
      4 C4         98.5800  103.7100  101.1900 cc      1  FDE        0.0725
      5 C5         98.7700  103.2400  102.4600 cd      1  FDE       -0.0322
      6 C6         99.5900  103.6100  100.0600 c3      1  FDE        0.0457
      7 N         100.9000  103.0500  100.4900 n3      1  FDE       -0.2919
      8 H          99.7200  104.6000   99.6100 h1      1  FDE        0.0503
      9 H1         99.1400  102.9800   99.2800 h1      1  FDE        0.0503
     10 C7        101.9200  104.1000  100.7000 c3      1  FDE        0.0245
     11 C8        101.3200  101.8400   99.7300 c3      1  FDE        0.0245
     12 C9        100.6400  100.5400  100.2500 c3      1  FDE        0.0639
     13 H2        102.4000  101.6900   99.8200 h1      1  FDE        0.0458
     14 H3        101.1100  101.9900   98.6600 h1      1  FDE        0.0458
     15 C1        100.9100   99.2900   99.3700 c3      1  FDE       -0.0377
     16 H5        100.2700   98.4800   99.7300 hc      1  FDE        0.0257
     17 H6        101.9400   98.9800   99.5600 hc      1  FDE        0.0257
     18 O1         99.2400  100.6800  100.4700 oh      1  FDE       -0.3921
     19 H7        101.0900  100.3300  101.2200 h1      1  FDE        0.0611
     20 C10       103.1900  103.6300  101.4500 c3      1  FDE        0.0639
     21 H8        101.4600  104.9100  101.3000 h1      1  FDE        0.0458
     22 H9        102.2100  104.5300   99.7400 h1      1  FDE        0.0458
     23 O2        103.9500  104.7800  101.8300 oh      1  FDE       -0.3921
     24 C2        102.8600  102.7600  102.7000 c3      1  FDE       -0.0377
     25 H10       103.7900  103.0200  100.7600 h1      1  FDE        0.0611
     26 H11       102.1200  103.2900  103.3100 hc      1  FDE        0.0257
     27 H13       102.4100  101.8200  102.3700 hc      1  FDE        0.0257
     28 H14       103.4100  105.2900  102.4600 ho      1  FDE        0.2105
     29 H15        98.8400   99.8000  100.4900 ho      1  FDE        0.2105
     30 H16        95.6800  104.3400  102.2100 h4      1  FDE        0.0902
     31 H17        97.2600  103.1900  104.1200 ha      1  FDE        0.0645
     32 H18        99.6400  102.7600  102.8800 ha      1  FDE        0.0648
     33 N1        100.7500   99.4300   97.9000 n3      2  DFA       -0.3248
     34 C          99.4900   99.9900   97.3500 c3      2  DFA        0.0403
     35 C1         98.2200   99.4100   97.9100 cc      2  DFA        0.0725
     36 H          99.4900   99.8500   96.2600 h1      2  DFA        0.0498
     37 H1         99.4700  101.0700   97.5300 h1      2  DFA        0.0498
     38 O          97.2200  100.2500   98.3200 os      2  DFA       -0.3174
     39 C2         98.0000   98.0800   98.1800 cd      2  DFA       -0.0319
     40 C3         96.3600   99.3800   98.9200 cc      2  DFA        0.0654
     41 C4         96.7500   98.0600   98.8700 cd      2  DFA       -0.0327
     42 C5         95.2000   99.9000   99.7200 c3      2  DFA        0.0418
     43 C6         93.8600   99.5800   99.1200 cc      2  DFA        0.0654
     44 H2         95.3000  100.9900   99.8300 hc      2  DFA        0.0409
     45 H3         95.2500   99.4900  100.7400 hc      2  DFA        0.0409
     46 C7         93.3200   98.3200   99.0400 cd      2  DFA       -0.0327
     47 C8         92.0300   98.5100   98.5000 cd      2  DFA       -0.0319
     48 O1         93.0300  100.5900   98.7000 os      2  DFA       -0.3174
     49 C9         91.9200   99.8700   98.3300 cc      2  DFA        0.0725
     50 C10        90.7000  100.5700   97.7900 c3      2  DFA        0.0403
     51 N2         89.4800  100.1900   98.5400 n3      2  DFA       -0.3248
     52 H4         90.5800  100.3100   96.7300 h1      2  DFA        0.0498
     53 H5         90.8500  101.6500   97.8600 h1      2  DFA        0.0498
     54 H6        101.5300   99.9700   97.5300 hn      2  DFA        0.1188
     55 H8         89.3200   99.1900   98.4400 hn      2  DFA        0.1188
     56 H9         88.6800  100.6700   98.1300 hn      2  DFA        0.1188
     57 H10        98.6500   97.2400   97.9900 ha      2  DFA        0.0648
     58 H11        96.2700   97.2000   99.3100 ha      2  DFA        0.0648
     59 H12        93.7800   97.3800   99.3400 ha      2  DFA        0.0648
     60 H13        91.2800   97.7500   98.2900 ha      2  DFA        0.0648
     61 N1        104.0300  102.4500  103.5500 n3      3  DFA       -0.3248
     62 C         105.1800  101.8100  102.8700 c3      3  DFA        0.0403
     63 C1        104.8400  100.4900  102.2300 cc      3  DFA        0.0725
     64 H         105.9700  101.6400  103.6100 h1      3  DFA        0.0498
     65 H1        105.5900  102.4800  102.1100 h1      3  DFA        0.0498
     66 O         104.7200  100.3900  100.8700 os      3  DFA       -0.3174
     67 C2        104.8500   99.2900  102.9000 cd      3  DFA       -0.0319
     68 C3        104.6700   99.0300  100.7100 cc      3  DFA        0.0654
     69 C4        104.7400   98.3100  101.8800 cd      3  DFA       -0.0327
     70 C5        104.7100   98.4400   99.3200 c3      3  DFA        0.0418
     71 C6        104.3200   96.9900   99.2000 cc      3  DFA        0.0654
     72 H2        105.7300   98.5700   98.9200 hc      3  DFA        0.0409
     73 H3        104.0700   99.0400   98.6500 hc      3  DFA        0.0409
     74 C7        103.1800   96.4300   99.7200 cd      3  DFA       -0.0327
     75 C8        103.1900   95.0900   99.2500 cd      3  DFA       -0.0319
     76 O1        105.0800   96.1300   98.4500 os      3  DFA       -0.3174
     77 C9        104.3400   94.9900   98.5200 cc      3  DFA        0.0725
     78 C10       104.7600   93.7600   97.7500 c3      3  DFA        0.0403
     79 N2        104.4700   92.5200   98.4800 n3      3  DFA       -0.3248
     80 H4        105.8300   93.8200   97.5500 h1      3  DFA        0.0498
     81 H5        104.2400   93.7500   96.7800 h1      3  DFA        0.0498
     82 H6        104.3600  103.3200  103.9600 hn      3  DFA        0.1188
     83 H8        104.9900   92.5100   99.3500 hn      3  DFA        0.1188
     84 H9        104.7900   91.7200   97.9300 hn      3  DFA        0.1188
     85 H10       104.9900   99.1200  103.9600 ha      3  DFA        0.0648
     86 H11       104.7700   97.2300  102.0000 ha      3  DFA        0.0648
     87 H12       102.4200   96.9100  100.3200 ha      3  DFA        0.0648
     88 H13       102.4300   94.3300   99.4300 ha      3  DFA        0.0648
@<TRIPOS>BOND
     1     1     2    1
     2     2     3    2
     3     1     4    1
     4     4     5    2
     5     3     5    1
     6     4     6    1
     7     6     7    1
     8     6     8    1
     9     6     9    1
    10     7    10    1
    11     7    11    1
    12    11    12    1
    13    11    13    1
    14    11    14    1
    15    12    15    1
    16    15    16    1
    17    15    17    1
    18    12    18    1
    19    12    19    1
    20    10    20    1
    21    10    21    1
    22    10    22    1
    23    20    23    1
    24    20    24    1
    25    20    25    1
    26    24    26    1
    27    24    27    1
    28    23    28    1
    29    18    29    1
    30     2    30    1
    31     3    31    1
    32     5    32    1
    33    33    34    1
    34    34    35    1
    35    34    36    1
    36    34    37    1
    37    35    38    1
    38    35    39    2
    39    38    40    1
    40    40    41    2
    41    39    41    1
    42    40    42    1
    43    42    43    1
    44    42    44    1
    45    42    45    1
    46    43    46    2
    47    46    47    1
    48    43    48    1
    49    48    49    1
    50    47    49    2
    51    49    50    1
    52    50    51    1
    53    50    52    1
    54    50    53    1
    55    33    54    1
    56    51    55    1
    57    51    56    1
    58    39    57    1
    59    41    58    1
    60    46    59    1
    61    47    60    1
    62    15    33    1
    63    61    62    1
    64    62    63    1
    65    62    64    1
    66    62    65    1
    67    63    66    1
    68    63    67    2
    69    66    68    1
    70    68    69    2
    71    67    69    1
    72    68    70    1
    73    70    71    1
    74    70    72    1
    75    70    73    1
    76    71    74    2
    77    74    75    1
    78    71    76    1
    79    76    77    1
    80    75    77    2
    81    77    78    1
    82    78    79    1
    83    78    80    1
    84    78    81    1
    85    61    82    1
    86    79    83    1
    87    79    84    1
    88    67    85    1
    89    69    86    1
    90    74    87    1
    91    75    88    1
    92    24    61    1
