@<TRIPOS>MOLECULE
DGE
 53 54 0 0 0
SMALL
GASTEIGER

@<TRIPOS>ATOM
      1 C           0.9103   -0.1680    0.1316 C.3     1  DGE        -0.0517
      2 C           2.4591   -0.0596    0.0397 C.3     1  DGE         0.0151
      3 C           3.0294   -0.4565    1.4195 C.3     1  DGE        -0.0517
      4 C           2.8433   -1.0480   -1.0880 C.ar    1  DGE        -0.0372
      5 C           2.9871   -0.5885   -2.4068 C.ar    1  DGE        -0.0543
      6 C           3.2266   -1.4629   -3.4649 C.ar    1  DGE        -0.0197
      7 C           3.2968   -2.8356   -3.2489 C.ar    1  DGE         0.1206
      8 C           3.1501   -3.3203   -1.9520 C.ar    1  DGE        -0.0197
      9 C           2.9288   -2.4374   -0.8787 C.ar    1  DGE        -0.0543
     10 O           3.4836   -3.7724   -4.2386 O.3     1  DGE        -0.4894
     11 C           3.5875   -3.2292   -5.5648 C.3     1  DGE         0.1151
     12 C           3.7394   -4.3425   -6.6037 C.3     1  DGE         0.0864
     13 O           4.9203   -5.1004   -6.3443 O.3     1  DGE        -0.3887
     14 C           2.5415   -5.2779   -6.6399 C.3     1  DGE        -0.0357
     15 C           2.9279    1.3917   -0.2544 C.ar    1  DGE        -0.0372
     16 C           2.0017    2.4321   -0.3996 C.ar    1  DGE        -0.0543
     17 C           2.3940    3.7076   -0.7974 C.ar    1  DGE        -0.0197
     18 C           3.7257    3.9966   -1.0872 C.ar    1  DGE         0.1206
     19 C           4.6804    2.9986   -0.8832 C.ar    1  DGE        -0.0197
     20 C           4.2865    1.7116   -0.4617 C.ar    1  DGE        -0.0543
     21 O           4.1666    5.2053   -1.5756 O.3     1  DGE        -0.4894
     22 C           3.1123    6.1302   -1.8997 C.3     1  DGE         0.1151
     23 C           3.6554    7.3998   -2.5594 C.3     1  DGE         0.0864
     24 O           4.5843    8.0463   -1.6920 O.3     1  DGE        -0.3887
     25 C           4.3206    7.1289   -3.8987 C.3     1  DGE        -0.0357
     26 H           0.5812   -1.1951    0.3270 H       1  DGE         0.0241
     27 H           0.4310    0.1398   -0.8080 H       1  DGE         0.0241
     28 H           0.5063    0.4555    0.9376 H       1  DGE         0.0241
     29 H           2.6091   -1.4014    1.7823 H       1  DGE         0.0241
     30 H           2.7902    0.3028    2.1752 H       1  DGE         0.0241
     31 H           4.1190   -0.5699    1.3965 H       1  DGE         0.0241
     32 H           2.8917    0.4678   -2.6453 H       1  DGE         0.0622
     33 H           3.3333   -1.0182   -4.4441 H       1  DGE         0.0654
     34 H           3.1836   -4.3919   -1.7626 H       1  DGE         0.0654
     35 H           2.7837   -2.8666    0.1107 H       1  DGE         0.0622
     36 H           4.4809   -2.5939   -5.6116 H       1  DGE         0.0722
     37 H           2.6877   -2.6501   -5.8058 H       1  DGE         0.0722
     38 H           3.8594   -3.8816   -7.5904 H       1  DGE         0.0624
     39 H           4.9330   -5.2730   -5.3841 H       1  DGE         0.2099
     40 H           2.4239   -5.8166   -5.6945 H       1  DGE         0.0256
     41 H           2.6778   -6.0339   -7.4207 H       1  DGE         0.0256
     42 H           1.6189   -4.7273   -6.8503 H       1  DGE         0.0256
     43 H           0.9397    2.2869   -0.2340 H       1  DGE         0.0622
     44 H           1.6062    4.4429   -0.9054 H       1  DGE         0.0654
     45 H           5.7319    3.2013   -1.0739 H       1  DGE         0.0654
     46 H           5.0517    0.9430   -0.3525 H       1  DGE         0.0622
     47 H           2.6125    6.4220   -0.9677 H       1  DGE         0.0722
     48 H           2.3985    5.6641   -2.5909 H       1  DGE         0.0722
     49 H           2.8198    8.0919   -2.7154 H       1  DGE         0.0624
     50 H           5.1704    7.3482   -1.3451 H       1  DGE         0.2099
     51 H           5.2011    6.4884   -3.7859 H       1  DGE         0.0256
     52 H           4.6653    8.0689   -4.3434 H       1  DGE         0.0256
     53 H           3.6237    6.6535   -4.5957 H       1  DGE         0.0256
@<TRIPOS>BOND
     1     1     2    1
     2     2     3    1
     3     2     4    1
     4     4     5   ar
     5     5     6   ar
     6     6     7   ar
     7     7     8   ar
     8     8     9   ar
     9     4     9   ar
    10     7    10    1
    11    10    11    1
    12    11    12    1
    13    12    13    1
    14    12    14    1
    15     2    15    1
    16    15    16   ar
    17    16    17   ar
    18    17    18   ar
    19    18    19   ar
    20    19    20   ar
    21    15    20   ar
    22    18    21    1
    23    21    22    1
    24    22    23    1
    25    23    24    1
    26    23    25    1
    27     1    26    1
    28     1    27    1
    29     1    28    1
    30     3    29    1
    31     3    30    1
    32     3    31    1
    33     5    32    1
    34     6    33    1
    35     8    34    1
    36     9    35    1
    37    11    36    1
    38    11    37    1
    39    12    38    1
    40    13    39    1
    41    14    40    1
    42    14    41    1
    43    14    42    1
    44    16    43    1
    45    17    44    1
    46    19    45    1
    47    20    46    1
    48    22    47    1
    49    22    48    1
    50    23    49    1
    51    24    50    1
    52    25    51    1
    53    25    52    1
    54    25    53    1
