@<TRIPOS>MOLECULE
*****
 50 52 0 0 0
SMALL
GASTEIGER

@<TRIPOS>ATOM
      1 C           0.4869    0.6335    2.1157 C.ar    1  STY1       -0.0476
      2 C1         -0.1799    0.4112    3.3370 C.ar    1  STY1       -0.0586
      3 C2          0.3995   -0.3463    4.3584 C.ar    1  STY1       -0.0615
      4 C3          1.6669   -0.8903    4.1876 C.ar    1  STY1       -0.0617
      5 C4          2.3500   -0.6765    2.9956 C.ar    1  STY1       -0.0615
      6 C5          1.7648    0.0765    1.9722 C.ar    1  STY1       -0.0586
      7 C6         -0.2001    1.4777    1.0246 C.3     1  STY1       -0.0305
      8 C7          0.7375    2.1523   -0.0415 C.3     1  STY1       -0.0613
      9 H1         -0.4380    2.3763    1.6265 H       1  STY1        0.0311
     10 H3          0.4844    3.2245    0.0118 H       1  STY1        0.0233
     11 H4          1.7767    2.1335    0.3078 H       1  STY1        0.0233
     12 H5          2.3331    0.2018    1.0598 H       1  STY1        0.0620
     13 H6          2.1195   -1.4805    4.9791 H       1  STY1        0.0618
     14 H7          3.3410   -1.1001    2.8552 H       1  STY1        0.0618
     15 H8         -1.1703    0.8259    3.5091 H       1  STY1        0.0620
     16 H9         -0.1437   -0.5114    5.2849 H       1  STY1        0.0618
     17 C          -1.9313   -0.4932    0.3748 C.ar    1  CRO01      -0.0476
     18 C1         -3.2640   -0.9503    0.4170 C.ar    1  CRO01      -0.0586
     19 C2         -3.5826   -2.2965    0.2179 C.ar    1  CRO01      -0.0615
     20 C3         -2.5727   -3.2202   -0.0240 C.ar    1  CRO01      -0.0617
     21 C4         -1.2504   -2.7934   -0.0638 C.ar    1  CRO01      -0.0615
     22 C5         -0.9366   -1.4448    0.1359 C.ar    1  CRO01      -0.0586
     23 C6         -1.6520    0.9854    0.6416 C.3     1  CRO01      -0.0305
     24 C7         -2.3529    1.8717   -0.4000 C.3     1  CRO01      -0.0613
     25 H1         -2.2268    1.1715    1.5639 H       1  CRO01       0.0311
     26 H2         -2.2016    1.5082   -1.4197 H       1  CRO01       0.0233
     27 H3         -2.0273    2.9142   -0.3309 H       1  CRO01       0.0233
     28 H4         -3.4377    1.8728   -0.2393 H       1  CRO01       0.0233
     29 H5          0.1104   -1.1676    0.1000 H       1  CRO01       0.0620
     30 H6         -2.8124   -4.2687   -0.1742 H       1  CRO01       0.0618
     31 H7         -0.4507   -3.5062   -0.2480 H       1  CRO01       0.0618
     32 H8         -4.0749   -0.2547    0.6231 H       1  CRO01       0.0620
     33 H9         -4.6183   -2.6215    0.2607 H       1  CRO01       0.0618
     34 C           1.0873    0.4299   -1.9834 C.ar    1  CRO11      -0.0476
     35 C1          0.1950   -0.3099   -2.7773 C.ar    1  CRO11      -0.0586
     36 C2          0.5237   -1.5909   -3.2242 C.ar    1  CRO11      -0.0615
     37 C3          1.7547   -2.1486   -2.8926 C.ar    1  CRO11      -0.0617
     38 C4          2.6615   -1.4194   -2.1271 C.ar    1  CRO11      -0.0615
     39 C5          2.3348   -0.1347   -1.6855 C.ar    1  CRO11      -0.0586
     40 C6          0.7112    1.8312   -1.5552 C.3     1  CRO11      -0.0305
     41 C7          1.6321    2.8291   -2.2913 C.3     1  CRO11      -0.0613
     42 H1         -0.2873    2.0541   -1.9348 H       1  CRO11       0.0311
     43 H2          2.6736    2.7428   -1.9612 H       1  CRO11       0.0233
     44 H3          1.3109    3.8607   -2.1095 H       1  CRO11       0.0233
     45 H4          1.6102    2.6624   -3.3745 H       1  CRO11       0.0233
     46 H5          3.0722    0.4256   -1.1167 H       1  CRO11       0.0620
     47 H6          2.0084   -3.1476   -3.2359 H       1  CRO11       0.0618
     48 H7          3.6287   -1.8486   -1.8794 H       1  CRO11       0.0618
     49 H8         -0.7755    0.1018   -3.0466 H       1  CRO11       0.0620
     50 H9         -0.1877   -2.1528   -3.8234 H       1  CRO11       0.0618
@<TRIPOS>BOND
     1     9     7    1
     2    11     8    1
     3    15     2    1
     4     2     1   ar
     5     2     3   ar
     6     7     1    1
     7     7     8    1
     8    10     8    1
     9    16     3    1
    10     1     6   ar
    11     3     4   ar
    12     4    13    1
    13     4     5   ar
    14     6     5   ar
    15     6    12    1
    16     5    14    1
    17    25    23    1
    18    28    24    1
    19    32    18    1
    20    18    17   ar
    21    18    19   ar
    22    23    17    1
    23    23    24    1
    24    27    24    1
    25    33    19    1
    26    17    22   ar
    27    19    20   ar
    28    24    26    1
    29    20    30    1
    30    20    21   ar
    31    22    21   ar
    32    22    29    1
    33    21    31    1
    34    42    40    1
    35    45    41    1
    36    49    35    1
    37    35    34   ar
    38    35    36   ar
    39    40    34    1
    40    40    41    1
    41    44    41    1
    42    50    36    1
    43    34    39   ar
    44    36    37   ar
    45    41    43    1
    46    37    47    1
    47    37    38   ar
    48    39    38   ar
    49    39    46    1
    50    38    48    1
    51    23     7    1
    52    40     8    1
