@<TRIPOS>MOLECULE
*****
 141 146 0 0 0
SMALL
GASTEIGER
@<TRIPOS>ATOM
      1 C             25.14     24.12     28.38  C.3    1  VEA        0.0151
      2 C1            25.36     25.39     29.26  C.3    1  VEA       -0.0517
      3 H             26.29      25.3     29.83    H    1  VEA        0.0241
      4 H1            24.54     25.52     29.97    H    1  VEA        0.0241
      5 H2            25.43     26.29     28.64    H    1  VEA        0.0241
      6 C2            24.92     22.94     29.36  C.3    1  VEA       -0.0517
      7 H3            25.71     22.89     30.12    H    1  VEA        0.0241
      8 H4            24.89     21.98     28.82    H    1  VEA        0.0241
      9 H5            23.96     23.05     29.88    H    1  VEA        0.0241
     10 C3             26.4     23.96     27.52 C.ar    1  VEA       -0.0372
     11 C4            26.59     24.81     26.41 C.ar    1  VEA       -0.0543
     12 C5            27.76     24.75     25.63 C.ar    1  VEA       -0.0197
     13 C6            28.77     23.84     25.95 C.ar    1  VEA        0.1206
     14 C7             28.6     22.98     27.05 C.ar    1  VEA       -0.0197
     15 C8            27.43     23.04     27.83 C.ar    1  VEA       -0.0543
     16 C9            23.89     24.21     27.49 C.ar    1  VEA       -0.0372
     17 C10           22.93     25.24     27.62 C.ar    1  VEA       -0.0543
     18 C11           21.77     25.25     26.82 C.ar    1  VEA       -0.0197
     19 C12           21.55     24.22     25.88 C.ar    1  VEA        0.1206
     20 C13            22.5      23.2     25.74 C.ar    1  VEA       -0.0197
     21 C14           23.66      23.2     26.54 C.ar    1  VEA       -0.0543
     22 H6            23.05     26.04     28.34    H    1  VEA        0.0622
     23 H7            21.05     26.05     26.95    H    1  VEA        0.0654
     24 H8            22.33     22.41     25.02    H    1  VEA        0.0654
     25 H9            24.37     22.39     26.42    H    1  VEA        0.0622
     26 H10           25.82     25.54     26.15    H    1  VEA        0.0622
     27 H11           27.88     25.41     24.78    H    1  VEA        0.0654
     28 H12           29.36     22.26     27.33    H    1  VEA        0.0654
     29 H13           27.34     22.38     28.68    H    1  VEA        0.0622
     30 O             29.92     23.84     25.19  O.3    1  VEA       -0.4893
     31 O1            20.42     24.17     25.09  O.3    1  VEA       -0.4893
     32 C15           31.11     23.13     25.57  C.3    1  VEA        0.1186
     33 C16           32.25     23.45     24.57  C.3    1  VEA        0.1230
     34 H14           30.92     22.05     25.56    H    1  VEA        0.0724
     35 H15           31.42     23.43     26.58    H    1  VEA        0.0724
     36 C17           32.55     24.96     24.53  C.3    1  VEA        0.1215
     37 O2            33.43     22.75     24.96  O.3    1  VEA       -0.3850
     38 H16           31.94     23.12     23.57    H    1  VEA        0.0662
     39 H17           34.15     23.18     24.46    H    1  VEA        0.2101
     40 O3            33.73     25.16     23.72  O.3    1  VEA       -0.4617
     41 H18           32.71     25.34     25.54    H    1  VEA        0.0725
     42 H19            31.7      25.5     24.09    H    1  VEA        0.0725
     43 C18           34.18     26.44     23.58  C.2    1  VEA        0.3097
     44 C19           35.45      26.5     22.72  C.3    1  VEA        0.0508
     45 O4            33.65     27.42     24.07  O.2    1  VEA       -0.2506
     46 C20           36.65     26.95     23.58  C.3    1  VEA       -0.0525
     47 H21           37.57     26.96     22.99    H    1  VEA        0.0237
     48 H22           36.79     26.27     24.43    H    1  VEA        0.0237
     49 C21           35.24     27.44     21.51  C.3    1  VEA       -0.0525
     50 H24           36.14     27.45     20.88    H    1  VEA        0.0237
     51 H25           35.04     28.47     21.85    H    1  VEA        0.0237
     52 H26           34.39     27.11      20.9    H    1  VEA        0.0237
     53 C22            19.4     25.18     25.12  C.3    1  VEA        0.1186
     54 C23           18.24     24.76     24.19  C.3    1  VEA        0.1230
     55 H27           19.82     26.13     24.77    H    1  VEA        0.0724
     56 H28           19.01     25.31     26.14    H    1  VEA        0.0724
     57 C24            17.3     25.95      23.9  C.3    1  VEA        0.1215
     58 O5            17.46     23.73     24.81  O.3    1  VEA       -0.3850
     59 H29           18.65     24.41     23.23    H    1  VEA        0.0662
     60 H30           16.65     23.66     24.27    H    1  VEA        0.2101
     61 O6            16.18     25.48     23.12  O.3    1  VEA       -0.4617
     62 H31           17.84     26.73     23.34    H    1  VEA        0.0725
     63 H32           16.94     26.39     24.84    H    1  VEA        0.0725
     64 C25           15.22     26.39     22.78  C.2    1  VEA        0.3097
     65 C26           14.09     25.74     21.98  C.3    1  VEA        0.0508
     66 C27           12.77      25.8     22.79  C.3    1  VEA       -0.0525
     67 H34           11.96      25.3     22.25    H    1  VEA        0.0237
     68 H35           12.48     26.84     22.97    H    1  VEA        0.0237
     69 O7            15.26     27.57     23.07  O.2    1  VEA       -0.2506
     70 C28           13.93     26.42     20.61  C.3    1  VEA       -0.0525
     71 H37           13.67     27.48     20.73    H    1  VEA        0.0237
     72 H38           13.14     25.93     20.02    H    1  VEA        0.0237
     73 H39           14.87     26.36     20.04    H    1  VEA        0.0237
     74 C             34.09     23.48     21.24 C.ar    1 CRO0       -0.0476
     75 C1            32.92     22.71     21.22 C.ar    1 CRO0       -0.0586
     76 C2            32.98     21.31     21.24 C.ar    1 CRO0       -0.0615
     77 C3            34.23     20.66     21.28 C.ar    1 CRO0       -0.0617
     78 C4            35.41     21.43     21.31 C.ar    1 CRO0       -0.0615
     79 C5            35.34     22.83     21.29 C.ar    1 CRO0       -0.0586
     80 C6            33.95      25.0     21.22  C.3    1 CRO0       -0.0305
     81 C7            35.26     25.81     21.25  C.3    1 CRO0       -0.0613
     82 H1            33.39     25.29     20.32    H    1 CRO0        0.0311
     83 H2            35.83     25.59     22.16    H    1 CRO0        0.0233
     84 H3            35.05     26.88     21.22    H    1 CRO0        0.0233
     85 H4            35.89     25.57     20.38    H    1 CRO0        0.0233
     86 H5            36.27     23.39     21.31    H    1 CRO0        0.0620
     87 H6            34.28     19.58      21.3    H    1 CRO0        0.0618
     88 H7            36.37     20.93     21.35    H    1 CRO0        0.0618
     89 H8            31.95     23.19     21.18    H    1 CRO0        0.0620
     90 H9            32.07     20.72     21.22    H    1 CRO0        0.0618
     91 C             34.79     23.43      21.6 C.ar    1 CRO1       -0.0476
     92 C1            33.62     22.66     21.58 C.ar    1 CRO1       -0.0586
     93 C2            33.68     21.26      21.6 C.ar    1 CRO1       -0.0615
     94 C3            34.93     20.61     21.64 C.ar    1 CRO1       -0.0617
     95 C4            36.11     21.38     21.67 C.ar    1 CRO1       -0.0615
     96 C5            36.04     22.78     21.65 C.ar    1 CRO1       -0.0586
     97 C6            34.65     24.95     21.58  C.3    1 CRO1       -0.0305
     98 C7            35.96     25.76     21.61  C.3    1 CRO1       -0.0613
     99 H1            34.09     25.24     20.68    H    1 CRO1        0.0311
    100 H2            36.53     25.54     22.52    H    1 CRO1        0.0233
    101 H3            35.75     26.83     21.58    H    1 CRO1        0.0233
    102 H4            36.59     25.52     20.74    H    1 CRO1        0.0233
    103 H5            36.97     23.34     21.67    H    1 CRO1        0.0620
    104 H6            34.98     19.53     21.66    H    1 CRO1        0.0618
    105 H7            37.07     20.88     21.71    H    1 CRO1        0.0618
    106 H8            32.65     23.14     21.54    H    1 CRO1        0.0620
    107 H9            32.77     20.67     21.58    H    1 CRO1        0.0618
    108 C             11.73     21.72      19.5 C.ar    1 CRO2       -0.0476
    109 C1            10.56     20.95     19.48 C.ar    1 CRO2       -0.0586
    110 C2            10.62     19.55      19.5 C.ar    1 CRO2       -0.0615
    111 C3            11.87      18.9     19.54 C.ar    1 CRO2       -0.0617
    112 C4            13.05     19.67     19.57 C.ar    1 CRO2       -0.0615
    113 C5            12.98     21.07     19.55 C.ar    1 CRO2       -0.0586
    114 C6            11.59     23.24     19.48  C.3    1 CRO2       -0.0305
    115 C7             12.9     24.05     19.51  C.3    1 CRO2       -0.0613
    116 H1            11.03     23.53     18.58    H    1 CRO2        0.0311
    117 H2            13.47     23.83     20.42    H    1 CRO2        0.0233
    118 H3            12.69     25.12     19.48    H    1 CRO2        0.0233
    119 H4            13.53     23.81     18.64    H    1 CRO2        0.0233
    120 H5            13.91     21.63     19.57    H    1 CRO2        0.0620
    121 H6            11.92     17.82     19.56    H    1 CRO2        0.0618
    122 H7            14.01     19.17     19.61    H    1 CRO2        0.0618
    123 H8             9.59     21.43     19.44    H    1 CRO2        0.0620
    124 H9             9.71     18.96     19.48    H    1 CRO2        0.0618
    125 C              9.91     21.28     19.81 C.ar    1 CRO3       -0.0476
    126 C1             8.74     20.51     19.79 C.ar    1 CRO3       -0.0586
    127 C2              8.8     19.11     19.81 C.ar    1 CRO3       -0.0615
    128 C3            10.05     18.46     19.85 C.ar    1 CRO3       -0.0617
    129 C4            11.23     19.23     19.88 C.ar    1 CRO3       -0.0615
    130 C5            11.16     20.63     19.86 C.ar    1 CRO3       -0.0586
    131 C6             9.77      22.8     19.79  C.3    1 CRO3       -0.0305
    132 C7            11.08     23.61     19.82  C.3    1 CRO3       -0.0613
    133 H1             9.21     23.09     18.89    H    1 CRO3        0.0311
    134 H2            11.65     23.39     20.73    H    1 CRO3        0.0233
    135 H3            10.87     24.68     19.79    H    1 CRO3        0.0233
    136 H4            11.71     23.37     18.95    H    1 CRO3        0.0233
    137 H5            12.09     21.19     19.88    H    1 CRO3        0.0620
    138 H6             10.1     17.38     19.87    H    1 CRO3        0.0618
    139 H7            12.19     18.73     19.92    H    1 CRO3        0.0618
    140 H8             7.77     20.99     19.75    H    1 CRO3        0.0620
    141 H9             7.89     18.52     19.79    H    1 CRO3        0.0618
@<TRIPOS>BOND
     1    72    70    1
     2    73    70    1
     3    70    71    1
     4    70    65    1
     5    50    49    1
     6    52    49    1
     7    49    51    1
     8    49    44    1
     9    65    64    1
    10    65    66    1
    11    67    66    1
    12    44    43    1
    13    44    46    1
    14    64    69    2
    15    64    61    1
    16    66    68    1
    17    47    46    1
    18    61    57    1
    19    59    54    1
    20    62    57    1
    21    38    33    1
    22    43    40    1
    23    43    45    2
    24    46    48    1
    25    40    36    1
    26    57    54    1
    27    57    63    1
    28    42    36    1
    29    54    58    1
    30    54    53    1
    31    60    58    1
    32    39    37    1
    33    36    33    1
    34    36    41    1
    35    33    37    1
    36    33    32    1
    37    55    53    1
    38    27    12    1
    39    24    20    1
    40    31    53    1
    41    31    19    1
    42    53    56    1
    43    30    32    1
    44    30    13    1
    45    34    32    1
    46    32    35    1
    47    12    13   ar
    48    12    11   ar
    49    20    19   ar
    50    20    21   ar
    51    19    18   ar
    52    13    14   ar
    53    26    11    1
    54    11    10   ar
    55    25    21    1
    56    21    16   ar
    57    18    23    1
    58    18    17   ar
    59    14    28    1
    60    14    15   ar
    61    16    17   ar
    62    16     1    1
    63    10    15   ar
    64    10     1    1
    65    17    22    1
    66    15    29    1
    67     1     2    1
    68     1     6    1
    69     5     2    1
    70     8     6    1
    71     2     3    1
    72     2     4    1
    73     6     9    1
    74     6     7    1
    75    82    80    1
    76    85    81    1
    77    89    75    1
    78    75    74   ar
    79    75    76   ar
    80    80    74    1
    81    80    81    1
    82    84    81    1
    83    90    76    1
    84    74    79   ar
    85    76    77   ar
    86    81    83    1
    87    77    87    1
    88    77    78   ar
    89    79    78   ar
    90    79    86    1
    91    78    88    1
    92    99    97    1
    93   102    98    1
    94   106    92    1
    95    92    91   ar
    96    92    93   ar
    97    97    91    1
    98    97    98    1
    99   101    98    1
   100   107    93    1
   101    91    96   ar
   102    93    94   ar
   103    98   100    1
   104    94   104    1
   105    94    95   ar
   106    96    95   ar
   107    96   103    1
   108    95   105    1
   109   116   114    1
   110   119   115    1
   111   123   109    1
   112   109   108   ar
   113   109   110   ar
   114   114   108    1
   115   114   115    1
   116   118   115    1
   117   124   110    1
   118   108   113   ar
   119   110   111   ar
   120   115   117    1
   121   111   121    1
   122   111   112   ar
   123   113   112   ar
   124   113   120    1
   125   112   122    1
   126   133   131    1
   127   136   132    1
   128   140   126    1
   129   126   125   ar
   130   126   127   ar
   131   131   125    1
   132   131   132    1
   133   135   132    1
   134   141   127    1
   135   125   130   ar
   136   127   128   ar
   137   132   134    1
   138   128   138    1
   139   128   129   ar
   140   130   129   ar
   141   130   137    1
   142   129   139    1
   143    80    44    1
   144    97    46    1
   145   114    65    1
   146   131    66    1
