@<TRIPOS>MOLECULE
*****
  377   386     1     0     0
SMALL
gas


@<TRIPOS>ATOM
      1 C           -0.5320    -0.5710     1.8130 c3         1 VEA       0.014609
      2 C1          -0.3900     0.5430     2.8920 c3         1 VEA      -0.051690
      3 H            0.5220     0.4170     3.4900 hc         1 VEA       0.024276
      4 H1          -1.2260     0.5330     3.6020 hc         1 VEA       0.024276
      5 H2          -0.3380     1.5390     2.4360 hc         1 VEA       0.024276
      6 C2          -0.6840    -1.9060     2.6100 c3         1 VEA      -0.051690
      7 H3           0.0470    -1.9970     3.4210 hc         1 VEA       0.024276
      8 H4          -0.5640    -2.7810     1.9600 hc         1 VEA       0.024276
      9 H5          -1.6690    -1.9800     3.0880 hc         1 VEA       0.024276
     10 C3           0.8610    -0.5370     1.0540 ca         1 VEA      -0.037779
     11 C4           1.1320     0.2930    -0.0390 ca         1 VEA      -0.055557
     12 C5           2.4660     0.4630    -0.5430 ca         1 VEA      -0.031490
     13 C6           3.5940    -0.1600     0.0270 ca         1 VEA       0.075038
     14 C7           3.3410    -1.0060     1.0960 ca         1 VEA      -0.031490
     15 C8           2.0120    -1.1880     1.5900 ca         1 VEA      -0.055557
     16 C9          -1.9150    -0.4300     1.0320 ca         1 VEA      -0.037779
     17 C10         -2.9010     0.5360     1.3750 ca         1 VEA      -0.055557
     18 C11         -4.2730     0.4620     0.9560 ca         1 VEA      -0.031490
     19 C12         -4.7290    -0.5860     0.1670 ca         1 VEA       0.075038
     20 C13         -3.7500    -1.5090    -0.2450 ca         1 VEA      -0.031490
     21 C14         -2.3810    -1.4350     0.1660 ca         1 VEA      -0.055557
     22 H6          -2.6550     1.3590     2.0430 ha         1 VEA       0.062694
     23 H7          -4.9560     1.2280     1.3110 ha         1 VEA       0.065055
     24 H8          -4.0560    -2.3480    -0.8700 ha         1 VEA       0.065055
     25 H9          -1.7100    -2.2350    -0.1450 ha         1 VEA       0.062694
     26 H10          0.3270     0.8590    -0.5050 ha         1 VEA       0.062694
     27 H11          2.6150     1.1280    -1.3930 ha         1 VEA       0.065055
     28 H12          4.1430    -1.5510     1.5840 ha         1 VEA       0.065055
     29 H13          1.9200    -1.8400     2.4570 ha         1 VEA       0.062694
     30 O            4.8270     0.1030    -0.5480 os         1 VEA      -0.343351
     31 O1          -6.0280    -0.8380    -0.2390 os         1 VEA      -0.343351
     32 C15          6.0660    -0.1640     0.1860 c3         1 VEA       0.081544
     33 C16          7.3630     0.1190    -0.6900 c3         1 VEA       0.101764
     34 H14          6.0780    -1.2140     0.4970 h1         1 VEA       0.060081
     35 H15          6.0740     0.4920     1.0630 h1         1 VEA       0.060081
     36 C17          8.6870     0.2860     0.1380 c3         1 VEA       0.084607
     37 O2           7.5440    -0.9930    -1.5870 oh         1 VEA      -0.388274
     38 H16          7.2020     1.0010    -1.3170 h1         1 VEA       0.065019
     39 H17          8.4510    -0.9490    -1.9380 ho         1 VEA       0.210692
     40 O3           9.8200     0.8790    -0.6210 os         1 VEA      -0.312723
     41 H18          8.9910    -0.6720     0.5710 h1         1 VEA       0.060196
     42 H19          8.5020     0.9910     0.9550 h1         1 VEA       0.060196
     43 C18         11.0420     0.2330    -0.6410 c          1 VEA       0.267932
     44 C19         12.3070     1.1750    -0.8900 c3         1 VEA       0.067987
     45 O4          11.1320    -0.9740    -0.4500 o          1 VEA      -0.265947
     46 C20         13.4360     0.8940     0.2140 c3         1 VEA      -0.036602
     47 C21         11.8300     2.6300    -0.5770 c3         1 VEA      -0.049121
     48 H24         11.0750     2.9850    -1.2850 hc         1 VEA       0.024179
     49 H25         12.6510     3.3510    -0.5680 hc         1 VEA       0.024179
     50 H26         11.3680     2.6820     0.4160 hc         1 VEA       0.024179
     51 C22         -7.1490     0.0100     0.1690 c3         1 VEA       0.081544
     52 C23         -8.5520    -0.6390    -0.2100 c3         1 VEA       0.101764
     53 H27         -7.0420     0.9710    -0.3460 h1         1 VEA       0.060081
     54 H28         -7.1070     0.1510     1.2550 h1         1 VEA       0.060081
     55 C24         -9.7920     0.3330    -0.1680 c3         1 VEA       0.084607
     56 O5          -8.8140    -1.7120     0.7120 oh         1 VEA      -0.388274
     57 H29         -8.4830    -1.0980    -1.2020 h1         1 VEA       0.065019
     58 H30         -9.6760    -2.0920     0.4620 ho         1 VEA       0.210692
     59 O6         -11.0780    -0.3410    -0.4970 os         1 VEA      -0.312750
     60 H31         -9.6370     1.1480    -0.8820 h1         1 VEA       0.060196
     61 H32         -9.9020     0.7350     0.8450 h1         1 VEA       0.060196
     62 C25        -12.1920     0.4780    -0.6220 c          1 VEA       0.266897
     63 C26        -13.5490    -0.2710    -0.9410 c3         1 VEA       0.055357
     64 C27        -14.1390    -0.9970     0.3640 c3         1 VEA      -0.023825
     65 O7         -12.1260     1.6950    -0.4820 o          1 VEA      -0.265988
     66 C28        -13.2430    -1.3840    -1.9660 c3         1 VEA      -0.050125
     67 H37        -12.7380    -0.9890    -2.8530 hc         1 VEA       0.024144
     68 H38        -14.1600    -1.8900    -2.2910 hc         1 VEA       0.024144
     69 H39        -12.5870    -2.1520    -1.5400 hc         1 VEA       0.024144
     70 H20         26.5850    -0.2850     7.7460 hc         1 UNL       0.024276
     71 H21         25.5560    -1.0900     8.9440 hc         1 UNL       0.024276
     72 C29         26.4160    -1.2280     8.2780 c3         1 UNL      -0.051690
     73 H22         24.2180    -0.3830     7.2430 ha         1 UNL       0.062694
     74 H23         27.2900    -1.3950     8.9210 hc         1 UNL       0.024276
     75 H33         38.2260     0.9750     3.6970 hc         1 UNL       0.023845
     76 O8          35.4500     0.5470     4.0030 o          1 UNL      -0.266333
     77 H34         22.2670    -0.2040     5.8320 ha         1 UNL       0.065055
     78 O9          15.7510     0.7040     2.5700 o          1 UNL      -0.266321
     79 H35         36.7180     1.4820     1.6310 hc         1 UNL       0.023845
     80 C30         24.0750    -1.1520     6.4890 ca         1 UNL      -0.055557
     81 H36         17.6520    -0.4850     4.1310 h1         1 UNL       0.060196
     82 C31         22.9320    -1.0460     5.6740 ca         1 UNL      -0.031490
     83 C32         38.3210    -0.0500     3.3220 c3         1 UNL      -0.053343
     84 H40         20.7970    -0.1190     3.9070 h1         1 UNL       0.060081
     85 H41         27.1600    -0.9670     5.1380 ha         1 UNL       0.062694
     86 H42         18.5310     0.4500     2.8650 h1         1 UNL       0.060196
     87 C33         26.2020    -2.4140     7.3010 c3         1 UNL       0.014609
     88 H43         20.1830    -1.2410     5.1770 h1         1 UNL       0.060081
     89 C34         36.8660     0.4410     1.3230 c3         1 UNL      -0.053343
     90 C35         35.8670    -0.4440     3.4210 c          1 UNL       0.263425
     91 H44         38.4640    -0.7050     4.1880 hc         1 UNL       0.023845
     92 H45         39.2230    -0.1030     2.7040 hc         1 UNL       0.023845
     93 C36         18.1660    -0.5380     3.1650 c3         1 UNL       0.084596
     94 C37         16.1010    -0.2820     1.9290 c          1 UNL       0.263706
     95 C38         27.8760    -1.7110     5.4840 ca         1 UNL      -0.055557
     96 C39         24.9870    -2.2160     6.3540 ca         1 UNL      -0.037779
     97 H46         16.2990     0.6920    -0.6000 hc         1 UNL       0.023856
     98 C40         20.4870    -1.1460     4.1280 c3         1 UNL       0.081544
     99 C41         37.0910    -0.4690     2.5250 c3         1 UNL       0.039496
    100 H47         34.4130    -1.4910     5.3450 h1         1 UNL       0.060196
    101 C42         27.5480    -2.5710     6.5470 ca         1 UNL      -0.037779
    102 H48         24.8670    -3.5370     8.6460 hc         1 UNL       0.024276
    103 H49         37.7230     0.4060     0.6420 hc         1 UNL       0.023845
    104 H50         26.5720    -3.7770     9.0030 hc         1 UNL       0.024276
    105 H51         29.3520    -1.0880     4.0420 ha         1 UNL       0.065055
    106 C43         29.1290    -1.7720     4.8580 ca         1 UNL      -0.031490
    107 C44         25.8560    -3.6460     8.1830 c3         1 UNL      -0.051690
    108 C45         13.9050    -0.5490     0.5040 c3         1 UNL      -0.040231
    109 H52         35.9750     0.1340     0.7650 hc         1 UNL       0.023845
    110 H53         33.3660    -1.0650     3.9450 h1         1 UNL       0.060196
    111 C46         22.6690    -2.0050     4.7020 ca         1 UNL       0.075038
    112 O10         17.2290    -1.0170     2.1670 os         1 UNL      -0.312974
    113 C47         34.1260    -1.7580     4.3210 c3         1 UNL       0.084596
    114 C48         16.2650    -0.3960    -0.5140 c3         1 UNL      -0.053072
    115 C49         19.3200    -1.5560     3.2100 c3         1 UNL       0.101764
    116 C50         15.4230    -0.8260     0.6770 c3         1 UNL       0.042356
    117 O11         35.3010    -1.6820     3.4840 os         1 UNL      -0.312982
    118 C51         28.5340    -3.4910     6.9490 ca         1 UNL      -0.055557
    119 C52         30.0990    -2.6790     5.2820 ca         1 UNL       0.075038
    120 O12         21.5940    -2.0290     3.8590 os         1 UNL      -0.343351
    121 C53         24.7160    -3.1610     5.3490 ca         1 UNL      -0.055557
    122 H54         17.3040    -0.7320    -0.4100 hc         1 UNL       0.023856
    123 C54         29.7910    -3.5460     6.3260 ca         1 UNL      -0.031490
    124 H55         28.3610    -4.1770     7.7750 ha         1 UNL       0.062694
    125 H56         32.5760    -3.1450     6.1650 h1         1 UNL       0.060081
    126 H57         37.2460    -1.4920     2.1620 hc         1 UNL       0.040359
    127 O13         31.2900    -2.6190     4.6090 os         1 UNL      -0.343351
    128 O14         18.7840    -2.8110     3.6680 oh         1 UNL      -0.388274
    129 C55         23.5780    -3.0520     4.5360 ca         1 UNL      -0.031490
    130 H58         25.8450    -4.5760     7.6030 hc         1 UNL       0.024276
    131 H59         15.8840    -0.8270    -1.4390 hc         1 UNL       0.023856
    132 H60         19.6970    -1.7400     2.1960 h1         1 UNL       0.065019
    133 C56         32.3610    -3.4130     5.1220 c3         1 UNL       0.081544
    134 H61         18.0880    -3.0570     3.0310 ho         1 UNL       0.210692
    135 C57         33.6200    -3.2040     4.2750 c3         1 UNL       0.101764
    136 H62         15.4990    -1.9200     0.7600 hc         1 UNL       0.040651
    137 H63         30.5050    -4.2760     6.6950 ha         1 UNL       0.065055
    138 H64         25.3850    -4.0060     5.1950 ha         1 UNL       0.062694
    139 O15         34.6530    -4.0820     4.7500 oh         1 UNL      -0.388274
    140 H65         35.4570    -3.8450     4.2510 ho         1 UNL       0.210692
    141 H66         23.3910    -3.8080     3.7760 ha         1 UNL       0.065055
    142 H67         33.4190    -3.4790     3.2330 h1         1 UNL       0.065019
    143 H68         32.0960    -4.4770     5.0870 h1         1 UNL       0.060081
    144 H69        -23.3830    -2.4710    10.4330 hc         1 UNL       0.024276
    145 H70        -23.7670    -3.6580    11.6930 hc         1 UNL       0.024276
    146 C58        -23.1530    -3.4780    10.8020 c3         1 UNL      -0.051690
    147 H71        -25.6360    -2.9790    10.4440 ha         1 UNL       0.062694
    148 H72        -22.1070    -3.4640    11.1330 hc         1 UNL       0.024276
    149 H73        -13.9860     0.8220     3.3700 hc         1 UNL       0.024133
    150 O16        -14.6650    -2.2920     3.0330 o          1 UNL      -0.266001
    151 H74        -27.9510    -3.2660     9.8470 ha         1 UNL       0.065055
    152 O17        -34.1890    -1.9400     6.9040 o          1 UNL      -0.266333
    153 H75        -15.4750     1.6330     0.7740 hc         1 UNL       0.024133
    154 C59        -25.8760    -3.7900     9.7620 ca         1 UNL      -0.055557
    155 H76        -32.5650    -3.2580     8.6330 h1         1 UNL       0.060196
    156 C60        -27.2290    -3.9520     9.4150 ca         1 UNL      -0.031490
    157 C61        -13.6300     0.4760     2.3930 c3         1 UNL      -0.050422
    158 H77        -29.6020    -3.3230     8.0390 h1         1 UNL       0.060081
    159 H78        -23.7120    -2.7750     7.6050 ha         1 UNL       0.062694
    160 H79        -36.9810    -2.5860     6.8000 hc         1 UNL       0.023845
    161 H80        -31.7630    -2.7570     7.1020 h1         1 UNL       0.060196
    162 C62        -23.3880    -4.5640     9.7180 c3         1 UNL       0.014609
    163 H81        -30.0560    -4.2120     9.5400 h1         1 UNL       0.060081
    164 C63        -15.8500     0.7650     1.3190 c3         1 UNL      -0.050422
    165 C64        -15.3120    -1.3340     2.6210 c          1 UNL       0.266589
    166 H82        -12.7720    -0.1800     2.5760 hc         1 UNL       0.024133
    167 H83        -13.2770     1.3540     1.8450 hc         1 UNL       0.024133
    168 C65        -32.2200    -3.5910     7.6460 c3         1 UNL       0.084596
    169 C66        -34.2760    -3.1200     6.5900 c          1 UNL       0.263425
    170 C67        -22.7350    -3.2530     7.5920 ca         1 UNL      -0.055557
    171 C68        -24.8760    -4.6540     9.2740 ca         1 UNL      -0.037779
    172 H84        -35.7810    -1.9410     4.5830 hc         1 UNL       0.023845
    173 C69        -29.9130    -4.2880     8.4550 c3         1 UNL       0.081544
    174 C70        -14.7430    -0.2580     1.6290 c3         1 UNL       0.051789
    175 H85        -16.2410    -1.7180     5.0020 h1         1 UNL       0.060196
    176 C71        -22.4100    -4.2240     8.5560 ca         1 UNL      -0.037779
    177 H86        -23.8190    -6.1750    11.1620 hc         1 UNL       0.024276
    178 H87        -16.6720     0.3090     0.7560 hc         1 UNL       0.024133
    179 H88        -22.0990    -5.8900    10.9380 hc         1 UNL       0.024276
    180 H89        -22.1040    -2.0990     5.8820 ha         1 UNL       0.065055
    181 C72        -21.8100    -2.8570     6.6040 ca         1 UNL      -0.031490
    182 C73        -23.0600    -5.9190    10.4110 c3         1 UNL      -0.051690
    183 C74        -36.7110    -3.6270     6.5920 c3         1 UNL      -0.053343
    184 H90        -16.2860     1.1760     2.2390 hc         1 UNL       0.024133
    185 H91        -17.8230    -0.9960     4.6730 h1         1 UNL       0.060196
    186 C75        -27.6200    -4.9830     8.5680 ca         1 UNL       0.075038
    187 O18        -33.3610    -4.0790     6.9080 os         1 UNL      -0.312982
    188 H92        -36.6090    -4.1390     7.5550 hc         1 UNL       0.023845
    189 C76        -17.0680    -1.6870     4.2820 c3         1 UNL       0.084607
    190 C77        -35.5400    -3.0020     4.4510 c3         1 UNL      -0.053343
    191 C78        -31.2210    -4.7430     7.7870 c3         1 UNL       0.101764
    192 C79        -35.4180    -3.7190     5.7910 c3         1 UNL       0.039496
    193 O19        -16.5850    -1.0770     3.0450 os         1 UNL      -0.312759
    194 C80        -21.1160    -4.7720     8.4770 ca         1 UNL      -0.055557
    195 C81        -20.5270    -3.4080     6.5410 ca         1 UNL       0.075038
    196 O20        -28.8990    -5.2660     8.1750 os         1 UNL      -0.343351
    197 C82        -25.2920    -5.6760     8.4020 ca         1 UNL      -0.055557
    198 H93        -37.5400    -4.0910     6.0470 hc         1 UNL       0.023845
    199 H94        -34.6000    -3.0590     3.8920 hc         1 UNL       0.023845
    200 C83        -20.1910    -4.3730     7.4880 ca         1 UNL      -0.031490
    201 H95        -20.7770    -5.5100     9.2010 ha         1 UNL       0.062694
    202 H96        -17.8110    -3.4360     6.2350 h1         1 UNL       0.060081
    203 O21        -19.7040    -2.9150     5.5510 os         1 UNL      -0.343351
    204 O22        -31.8280    -5.7780     8.5790 oh         1 UNL      -0.388274
    205 C84        -26.6430    -5.8430     8.0670 ca         1 UNL      -0.031490
    206 H97        -23.0120    -6.7500     9.6970 hc         1 UNL       0.024276
    207 H98        -36.3280    -3.4540     3.8380 hc         1 UNL       0.023845
    208 H99        -31.0140    -5.1870     6.8070 h1         1 UNL       0.065019
    209 C85        -18.4490    -3.5840     5.3540 c3         1 UNL       0.081544
    210 H100       -32.6530    -6.0230     8.1210 ho         1 UNL       0.210692
    211 C86        -17.6920    -3.0840     4.0920 c3         1 UNL       0.101764
    212 H101       -35.2000    -4.7760     5.5970 hc         1 UNL       0.040359
    213 H102       -19.2080    -4.8330     7.5070 ha         1 UNL       0.065055
    214 H103       -24.5690    -6.3750     7.9870 ha         1 UNL       0.062694
    215 O23        -16.6690    -4.0540     3.8090 oh         1 UNL      -0.388274
    216 H104       -15.8810    -3.5930     3.4540 ho         1 UNL       0.210692
    217 H105       -26.9350    -6.6610     7.4130 ha         1 UNL       0.065055
    218 H106       -18.3700    -3.0630     3.2320 h1         1 UNL       0.065019
    219 H107       -18.6250    -4.6620     5.2390 h1         1 UNL       0.060081
    220 H108       -26.2960     5.4050    -6.1340 hc         1 UNL       0.024276
    221 H109       -27.5270     4.8290    -5.0000 hc         1 UNL       0.024276
    222 C87        -26.6010     4.5510    -5.5180 c3         1 UNL      -0.051690
    223 H110       -28.6110     5.3510    -6.8480 ha         1 UNL       0.062694
    224 H111       -25.8380     4.4200    -4.7400 hc         1 UNL       0.024276
    225 H112       -14.1050     1.7810    -4.8380 hc         1 UNL       0.023856
    226 O24        -16.9210     2.1380    -2.2540 o          1 UNL      -0.266321
    227 H113       -30.5230     5.3790    -8.2920 ha         1 UNL       0.065055
    228 O25        -36.7050     6.4860   -11.1460 o          1 UNL      -0.266333
    229 C88        -28.7200     4.5110    -7.5290 ca         1 UNL      -0.055557
    230 H114       -34.9990     5.1300    -9.6050 h1         1 UNL       0.060196
    231 C89        -29.8540     4.5280    -8.3630 ca         1 UNL      -0.031490
    232 C90        -13.8790     1.6770    -3.7710 c3         1 UNL      -0.053036
    233 H115       -32.0340     5.2230   -10.0960 h1         1 UNL       0.060081
    234 H116       -24.9920     4.5290    -8.1130 ha         1 UNL       0.062694
    235 H117       -39.4570     5.9060   -11.3760 hc         1 UNL       0.023845
    236 H118       -34.2170     5.7700   -11.0920 h1         1 UNL       0.060196
    237 C91        -26.7730     3.2560    -6.3660 c3         1 UNL       0.014609
    238 H119       -32.5680     4.2430    -8.6830 h1         1 UNL       0.060081
    239 C92        -14.6680     0.6860    -1.5370 c3         1 UNL      -0.026409
    240 C93        -16.3340     1.6300    -3.2060 c          1 UNL       0.263742
    241 H120       -13.7870     2.6880    -3.3580 hc         1 UNL       0.023856
    242 H121       -12.9090     1.1820    -3.6820 hc         1 UNL       0.023856
    243 C94        -34.6390     4.8810   -10.6110 c3         1 UNL       0.084596
    244 C95        -36.7460     5.3390   -11.5710 c          1 UNL       0.263425
    245 C96        -24.5350     3.6840    -7.5980 ca         1 UNL      -0.055557
    246 C97        -27.8140     3.4290    -7.5100 ca         1 UNL      -0.037779
    247 H122       -38.2330     6.5610   -13.5660 hc         1 UNL       0.023845
    248 C98        -32.3320     4.2260    -9.7540 c3         1 UNL       0.081544
    249 C99        -14.9720     0.8920    -3.0650 c3         1 UNL       0.043357
    250 H123       -18.8200     1.3050    -3.9150 h1         1 UNL       0.060196
    251 C100       -25.3220     2.8540    -6.7760 ca         1 UNL      -0.037779
    252 H124       -28.4460     2.5260    -5.1200 hc         1 UNL       0.024276
    253 H125       -26.8630     2.1130    -4.4710 hc         1 UNL       0.024276
    254 H126       -22.5590     4.1880    -8.3240 ha         1 UNL       0.065055
    255 C101       -23.1360     3.4990    -7.7120 ca         1 UNL      -0.031490
    256 C102       -27.4300     2.2210    -5.4030 c3         1 UNL      -0.051690
    257 C103       -39.1930     4.8630   -11.5860 c3         1 UNL      -0.053343
    258 H127       -18.3450     3.0180    -4.0700 h1         1 UNL       0.060196
    259 C104       -30.1220     3.4590    -9.2100 ca         1 UNL       0.075038
    260 O26        -35.7630     4.4080   -11.3870 os         1 UNL      -0.312982
    261 H128       -39.1030     4.3460   -10.6250 hc         1 UNL       0.023845
    262 C105       -18.2550     2.0220    -4.5230 c3         1 UNL       0.084596
    263 C106       -38.0090     5.4990   -13.7120 c3         1 UNL      -0.053343
    264 C107       -33.5820     3.7670   -10.5330 c3         1 UNL       0.101764
    265 C108       -37.8950     4.7630   -12.3810 c3         1 UNL       0.039496
    266 O27        -16.8600     1.6020    -4.4780 os         1 UNL      -0.312973
    267 C109       -24.6550     1.7670    -6.1770 ca         1 UNL      -0.055557
    268 C110       -22.4800     2.4870    -7.0040 ca         1 UNL       0.075038
    269 O28        -31.2380     3.3190    -9.9970 os         1 UNL      -0.343351
    270 C111       -28.0550     2.3980    -8.4330 ca         1 UNL      -0.055557
    271 H129       -40.0240     4.4110   -12.1390 hc         1 UNL       0.023845
    272 H130       -37.0720     5.4340   -14.2760 hc         1 UNL       0.023845
    273 C112       -23.2630     1.5850    -6.2900 ca         1 UNL      -0.031490
    274 H131       -25.1890     1.0530    -5.5550 ha         1 UNL       0.062694
    275 H132       -20.7310     2.9590    -5.1120 h1         1 UNL       0.060081
    276 H133       -15.1040    -0.0900    -3.5330 hc         1 UNL       0.040687
    277 O29        -21.1020     2.4150    -7.0830 os         1 UNL      -0.343351
    278 O30        -34.1700     2.6350    -9.8700 oh         1 UNL      -0.388274
    279 C113       -29.1920     2.4170    -9.2680 ca         1 UNL      -0.031490
    280 H134       -27.5120     1.2280    -5.8630 hc         1 UNL       0.024276
    281 H135       -38.8070     5.0680   -14.3280 hc         1 UNL       0.023845
    282 H136       -33.3080     3.4300   -11.5390 h1         1 UNL       0.065019
    283 C114       -20.4530     2.1620    -5.8110 c3         1 UNL       0.081544
    284 H137       -34.9800     2.4160   -10.3670 ho         1 UNL       0.210692
    285 C115       -18.9000     2.0880    -5.9380 c3         1 UNL       0.101764
    286 H138       -37.6930     3.7040   -12.5820 hc         1 UNL       0.040359
    287 H139       -22.8210     0.7270    -5.7930 ha         1 UNL       0.065055
    288 H140       -27.4010     1.5290    -8.4680 ha         1 UNL       0.062694
    289 O31        -18.5580     0.9180    -6.6920 oh         1 UNL      -0.388274
    290 H141       -18.9960     1.0170    -7.5590 ho         1 UNL       0.210692
    291 H142       -29.3770     1.5770    -9.9350 ha         1 UNL       0.065055
    292 H143       -18.5110     2.9490    -6.4920 h1         1 UNL       0.065019
    293 H144       -20.7880     1.1930    -5.4240 h1         1 UNL       0.060081
    294 H145        25.7300     3.8520    -1.2250 hc         1 UNL       0.024276
    295 H146        24.9170     3.0940     0.1540 hc         1 UNL       0.024276
    296 C116        25.6890     2.9460    -0.6100 c3         1 UNL      -0.051690
    297 H147        23.3040     3.5580    -1.3390 ha         1 UNL       0.062694
    298 H148        26.6470     2.8740    -0.0780 hc         1 UNL       0.024276
    299 H149        37.3700     5.2310    -5.3330 hc         1 UNL       0.023845
    300 O32         34.6060     4.8050    -5.0110 o          1 UNL      -0.266333
    301 H150        21.1090     3.4460    -2.3320 ha         1 UNL       0.065055
    302 O33         14.2860     3.1230    -2.2220 o          1 UNL      -0.265959
    303 H151        35.8710     5.7450    -7.4030 hc         1 UNL       0.023845
    304 C117        23.1060     2.7280    -2.0120 ca         1 UNL      -0.055557
    305 H152        16.7420     2.3770    -2.0760 h1         1 UNL       0.060196
    306 C118        21.8150     2.6590    -2.5770 ca         1 UNL      -0.031490
    307 C119        37.4610     4.2050    -5.7090 c3         1 UNL      -0.053343
    308 H153        19.0620     3.0720    -3.5970 h1         1 UNL       0.060081
    309 H154        26.1880     3.0760    -3.7420 ha         1 UNL       0.062694
    310 H155        11.8130     2.7630    -3.3200 hc         1 UNL       0.024169
    311 H156        16.3760     2.9980    -3.7070 h1         1 UNL       0.060196
    312 C120        25.4210     1.6750    -1.4650 c3         1 UNL       0.014609
    313 H157        19.2180     1.9440    -2.2060 h1         1 UNL       0.060081
    314 C121        36.0170     4.7040    -7.7110 c3         1 UNL      -0.053343
    315 C122        35.0020     3.8200    -5.6190 c          1 UNL       0.263425
    316 H158        37.6000     3.5490    -4.8430 hc         1 UNL       0.023845
    317 H159        38.3650     4.1490    -6.3250 hc         1 UNL       0.023845
    318 C123        16.5320     2.0890    -3.1130 c3         1 UNL       0.084607
    319 C124        14.2270     1.9420    -2.5520 c          1 UNL       0.267661
    320 C125        26.9420     2.3560    -3.4280 ca         1 UNL      -0.055557
    321 C126        24.0840     1.7440    -2.2590 ca         1 UNL      -0.037779
    322 H160        13.5090    -0.3970    -3.9000 hc         1 UNL       0.024169
    323 C127        19.0930     2.0190    -3.2940 c3         1 UNL       0.081544
    324 C128        36.2310     3.7920    -6.5090 c3         1 UNL       0.039496
    325 H161        33.5250     2.7760    -3.7250 h1         1 UNL       0.060196
    326 C129        26.6970     1.5060    -2.3350 ca         1 UNL      -0.037779
    327 H162        24.3000     0.6290     0.1200 hc         1 UNL       0.024276
    328 H163        36.8790     4.6680    -8.3860 hc         1 UNL       0.023845
    329 H164        26.0420     0.4740     0.2870 hc         1 UNL       0.024276
    330 H165        28.3380     3.0250    -4.9320 ha         1 UNL       0.065055
    331 C130        28.1740     2.3360    -4.1060 ca         1 UNL      -0.031490
    332 C131        25.2310     0.5130    -0.4490 c3         1 UNL      -0.051690
    333 C132        11.9340     1.6810    -3.4360 c3         1 UNL      -0.049383
    334 H166        35.1300     4.4000    -8.2770 hc         1 UNL       0.023845
    335 H167        32.4710     3.2090    -5.1180 h1         1 UNL       0.060196
    336 C133        21.4590     1.5990    -3.4050 ca         1 UNL       0.075038
    337 O34         15.3030     1.2960    -3.1150 os         1 UNL      -0.312731
    338 H168        10.9480     1.2120    -3.3690 hc         1 UNL       0.024169
    339 C134        33.2330     2.5140    -4.7490 c3         1 UNL       0.084596
    340 C135        13.1650    -0.3650    -2.8580 c3         1 UNL      -0.049383
    341 C136        17.7560     1.3230    -3.6800 c3         1 UNL       0.101764
    342 C137        12.9190     1.0850    -2.3990 c3         1 UNL       0.065425
    343 O35         34.4060     2.5950    -5.5920 os         1 UNL      -0.312982
    344 C138        27.7300     0.6160    -1.9830 ca         1 UNL      -0.055557
    345 C139        29.2010     1.4760    -3.7130 ca         1 UNL       0.075038
    346 O36         20.2140     1.3910    -3.9530 os         1 UNL      -0.343351
    347 C140        23.7310     0.7230    -3.1590 ca         1 UNL      -0.055557
    348 H169        12.3050     1.5330    -4.4580 hc         1 UNL       0.024169
    349 H170        13.9380    -0.8630    -2.2780 hc         1 UNL       0.024169
    350 C141        28.9620     0.6000    -2.6590 ca         1 UNL      -0.031490
    351 H171        27.6260    -0.0680    -1.1450 ha         1 UNL       0.062694
    352 H172        31.7180     1.1160    -2.8920 h1         1 UNL       0.060081
    353 H173        36.3860     2.7680    -6.8710 hc         1 UNL       0.040359
    354 O37         30.3740     1.5880    -4.4160 os         1 UNL      -0.343351
    355 O38         17.7650    -0.0120    -3.1600 oh         1 UNL      -0.388274
    356 C142        22.4410     0.6570    -3.7240 ca         1 UNL      -0.031490
    357 H174        25.1880    -0.4630    -0.9480 hc         1 UNL       0.024276
    358 H175        12.2550    -0.9690    -2.8110 hc         1 UNL       0.024169
    359 H176        17.6800     1.2320    -4.7700 h1         1 UNL       0.065019
    360 C143        31.4880     0.8350    -3.9280 c3         1 UNL       0.081544
    361 H177        16.9440    -0.4310    -3.4750 ho         1 UNL       0.210692
    362 C144        32.7280     1.0680    -4.8010 c3         1 UNL       0.101764
    363 H178        29.7150    -0.1010    -2.3130 ha         1 UNL       0.065055
    364 H179        24.4440    -0.0650    -3.3980 ha         1 UNL       0.062694
    365 O39         33.7770     0.1920    -4.3560 oh         1 UNL      -0.388274
    366 H180        34.5690     0.4400    -4.8690 ho         1 UNL       0.210692
    367 H181        22.1950    -0.1670    -4.3890 ha         1 UNL       0.065055
    368 H182        32.5080     0.8020    -5.8410 h1         1 UNL       0.065019
    369 H183        31.2570    -0.2380    -3.9500 h1         1 UNL       0.060081
    370 H184        13.4030    -0.8800     1.4230 hc         1 UNL       0.027503
    371 H185        13.5510    -1.2240    -0.2770 hc         1 UNL       0.027503
    372 H186        13.0510     1.2700     1.1730 hc         1 UNL       0.027816
    373 H187        14.3020     1.5300     0.0050 hc         1 UNL       0.027816
    374 H188       -14.9330    -1.6740     0.0100 hc         1 UNL       0.028850
    375 H189       -13.3500    -1.6680     0.7340 hc         1 UNL       0.028850
    376 H190       -14.5430     1.6840    -1.1000 hc         1 UNL       0.028572
    377 H191       -15.6170     0.2910    -1.1590 hc         1 UNL       0.028572
@<TRIPOS>BOND
     1    68    66 1   
     2    69    66 1   
     3    66    67 1   
     4    66    63 1   
     5    48    47 1   
     6    50    47 1   
     7    47    49 1   
     8    47    44 1   
     9    63    62 1   
    10    63    64 1   
    11    44    43 1   
    12    44    46 1   
    13    62    65 2   
    14    62    59 1   
    15    59    55 1   
    16    57    52 1   
    17    60    55 1   
    18    38    33 1   
    19    43    40 1   
    20    43    45 2   
    21    40    36 1   
    22    55    52 1   
    23    55    61 1   
    24    42    36 1   
    25    52    56 1   
    26    52    51 1   
    27    58    56 1   
    28    39    37 1   
    29    36    33 1   
    30    36    41 1   
    31    33    37 1   
    32    33    32 1   
    33    53    51 1   
    34    27    12 1   
    35    24    20 1   
    36    31    51 1   
    37    31    19 1   
    38    51    54 1   
    39    30    32 1   
    40    30    13 1   
    41    34    32 1   
    42    32    35 1   
    43    12    13 ar  
    44    12    11 ar  
    45    20    19 ar  
    46    20    21 ar  
    47    19    18 ar  
    48    13    14 ar  
    49    26    11 1   
    50    11    10 ar  
    51    25    21 1   
    52    21    16 ar  
    53    18    23 1   
    54    18    17 ar  
    55    14    28 1   
    56    14    15 ar  
    57    16    17 ar  
    58    16     1 1   
    59    10    15 ar  
    60    10     1 1   
    61    17    22 1   
    62    15    29 1   
    63     1     2 1   
    64     1     6 1   
    65     5     2 1   
    66     8     6 1   
    67     2     3 1   
    68     2     4 1   
    69     6     9 1   
    70     6     7 1   
    71    70    72 1   
    72    72    74 1   
    73    72    71 1   
    74    80    73 1   
    75    82    77 1   
    76    82    80 ar  
    77    83    75 1   
    78    83    91 1   
    79    84    98 1   
    80    85    95 1   
    81    86    93 1   
    82    87    72 1   
    83    87   107 1   
    84    89    79 1   
    85    89    99 1   
    86    90   117 1   
    87    90    76 2   
    88    92    83 1   
    89    93   115 1   
    90    93    81 1   
    91    94    78 2   
    92    94   112 1   
    93    95   101 ar  
    94    96    80 ar  
    95    96    87 1   
    96    98    88 1   
    97    99    90 1   
    98    99    83 1   
    99   101   118 ar  
   100   101    87 1   
   101   103    89 1   
   102   105   106 1   
   103   106   119 ar  
   104   106    95 ar  
   105   107   102 1   
   106   107   104 1   
   107   109    89 1   
   108   110   113 1   
   109   111    82 ar  
   110   112    93 1   
   111   113   135 1   
   112   113   100 1   
   113   114    97 1   
   114   114   116 1   
   115   115   132 1   
   116   115   128 1   
   117   115    98 1   
   118   116    94 1   
   119   116   108 1   
   120   117   113 1   
   121   118   124 1   
   122   119   123 ar  
   123   120    98 1   
   124   120   111 1   
   125   121    96 ar  
   126   122   114 1   
   127   123   137 1   
   128   123   118 ar  
   129   126    99 1   
   130   127   133 1   
   131   127   119 1   
   132   129   111 ar  
   133   129   121 ar  
   134   130   107 1   
   135   131   114 1   
   136   133   125 1   
   137   134   128 1   
   138   135   142 1   
   139   135   139 1   
   140   135   133 1   
   141   136   116 1   
   142   138   121 1   
   143   140   139 1   
   144   141   129 1   
   145   143   133 1   
   146   144   146 1   
   147   146   148 1   
   148   146   145 1   
   149   154   147 1   
   150   156   151 1   
   151   156   154 ar  
   152   157   149 1   
   153   157   166 1   
   154   158   173 1   
   155   159   170 1   
   156   161   168 1   
   157   162   146 1   
   158   162   182 1   
   159   164   153 1   
   160   164   174 1   
   161   165   193 1   
   162   165   150 2   
   163   167   157 1   
   164   168   191 1   
   165   168   155 1   
   166   169   152 2   
   167   169   187 1   
   168   170   176 ar  
   169   171   154 ar  
   170   171   162 1   
   171   173   163 1   
   172   174   165 1   
   173   174   157 1   
   174   176   194 ar  
   175   176   162 1   
   176   178   164 1   
   177   180   181 1   
   178   181   195 ar  
   179   181   170 ar  
   180   182   177 1   
   181   182   179 1   
   182   183   160 1   
   183   183   188 1   
   184   184   164 1   
   185   185   189 1   
   186   186   156 ar  
   187   187   168 1   
   188   189   211 1   
   189   189   175 1   
   190   190   172 1   
   191   190   192 1   
   192   191   208 1   
   193   191   204 1   
   194   191   173 1   
   195   192   169 1   
   196   192   183 1   
   197   193   189 1   
   198   194   201 1   
   199   195   200 ar  
   200   196   173 1   
   201   196   186 1   
   202   197   171 ar  
   203   198   183 1   
   204   199   190 1   
   205   200   213 1   
   206   200   194 ar  
   207   203   209 1   
   208   203   195 1   
   209   205   186 ar  
   210   205   197 ar  
   211   206   182 1   
   212   207   190 1   
   213   209   202 1   
   214   210   204 1   
   215   211   218 1   
   216   211   215 1   
   217   211   209 1   
   218   212   192 1   
   219   214   197 1   
   220   216   215 1   
   221   217   205 1   
   222   219   209 1   
   223   220   222 1   
   224   222   224 1   
   225   222   221 1   
   226   229   223 1   
   227   231   227 1   
   228   231   229 ar  
   229   232   225 1   
   230   232   241 1   
   231   233   248 1   
   232   234   245 1   
   233   236   243 1   
   234   237   222 1   
   235   237   256 1   
   236   239   249 1   
   237   240   266 1   
   238   240   226 2   
   239   242   232 1   
   240   243   264 1   
   241   243   230 1   
   242   244   228 2   
   243   244   260 1   
   244   245   251 ar  
   245   246   229 ar  
   246   246   237 1   
   247   248   238 1   
   248   249   240 1   
   249   249   232 1   
   250   251   267 ar  
   251   251   237 1   
   252   254   255 1   
   253   255   268 ar  
   254   255   245 ar  
   255   256   252 1   
   256   256   253 1   
   257   257   235 1   
   258   257   261 1   
   259   258   262 1   
   260   259   231 ar  
   261   260   243 1   
   262   262   285 1   
   263   262   250 1   
   264   263   247 1   
   265   263   265 1   
   266   264   282 1   
   267   264   278 1   
   268   264   248 1   
   269   265   244 1   
   270   265   257 1   
   271   266   262 1   
   272   267   274 1   
   273   268   273 ar  
   274   269   248 1   
   275   269   259 1   
   276   270   246 ar  
   277   271   257 1   
   278   272   263 1   
   279   273   287 1   
   280   273   267 ar  
   281   276   249 1   
   282   277   283 1   
   283   277   268 1   
   284   279   259 ar  
   285   279   270 ar  
   286   280   256 1   
   287   281   263 1   
   288   283   275 1   
   289   284   278 1   
   290   285   292 1   
   291   285   289 1   
   292   285   283 1   
   293   286   265 1   
   294   288   270 1   
   295   290   289 1   
   296   291   279 1   
   297   293   283 1   
   298   294   296 1   
   299   296   298 1   
   300   296   295 1   
   301   304   297 1   
   302   306   301 1   
   303   306   304 ar  
   304   307   299 1   
   305   307   316 1   
   306   308   323 1   
   307   309   320 1   
   308   311   318 1   
   309   312   296 1   
   310   312   332 1   
   311   314   303 1   
   312   314   324 1   
   313   315   343 1   
   314   315   300 2   
   315   317   307 1   
   316   318   341 1   
   317   318   305 1   
   318   319   302 2   
   319   319   337 1   
   320   320   326 ar  
   321   321   304 ar  
   322   321   312 1   
   323   323   313 1   
   324   324   315 1   
   325   324   307 1   
   326   326   344 ar  
   327   326   312 1   
   328   328   314 1   
   329   330   331 1   
   330   331   345 ar  
   331   331   320 ar  
   332   332   327 1   
   333   332   329 1   
   334   333   310 1   
   335   333   338 1   
   336   334   314 1   
   337   335   339 1   
   338   336   306 ar  
   339   337   318 1   
   340   339   362 1   
   341   339   325 1   
   342   340   322 1   
   343   340   342 1   
   344   341   359 1   
   345   341   355 1   
   346   341   323 1   
   347   342   319 1   
   348   342   333 1   
   349   343   339 1   
   350   344   351 1   
   351   345   350 ar  
   352   346   323 1   
   353   346   336 1   
   354   347   321 ar  
   355   348   333 1   
   356   349   340 1   
   357   350   363 1   
   358   350   344 ar  
   359   353   324 1   
   360   354   360 1   
   361   354   345 1   
   362   356   336 ar  
   363   356   347 ar  
   364   357   332 1   
   365   358   340 1   
   366   360   352 1   
   367   361   355 1   
   368   362   368 1   
   369   362   365 1   
   370   362   360 1   
   371   364   347 1   
   372   366   365 1   
   373   367   356 1   
   374   369   360 1   
   375   108    46 1   
   376   108   370 1   
   377   108   371 1   
   378    46   372 1   
   379    46   373 1   
   380   342    44 1   
   381    64   174 1   
   382    64   374 1   
   383    64   375 1   
   384    63   239 1   
   385   239   376 1   
   386   239   377 1   
@<TRIPOS>SUBSTRUCTURE
     1 VEA         1 TEMP              0 ****  ****    0 ROOT
