@<TRIPOS>MOLECULE
*****
 377 386 0 0 0
SMALL
GASTEIGER

@<TRIPOS>ATOM
      1 C          -0.5316   -0.5709    1.8134 C.3     1  VEA11       0.0151
      2 C1         -0.3897    0.5428    2.8921 C.3     1  VEA11      -0.0517
      3 H           0.5223    0.4169    3.4899 H       1  VEA11       0.0241
      4 H1         -1.2255    0.5335    3.6021 H       1  VEA11       0.0241
      5 H2         -0.3378    1.5387    2.4363 H       1  VEA11       0.0241
      6 C2         -0.6837   -1.9062    2.6101 C.3     1  VEA11      -0.0517
      7 H3          0.0472   -1.9971    3.4215 H       1  VEA11       0.0241
      8 H4         -0.5638   -2.7808    1.9597 H       1  VEA11       0.0241
      9 H5         -1.6693   -1.9800    3.0878 H       1  VEA11       0.0241
     10 C3          0.8607   -0.5374    1.0544 C.ar    1  VEA11      -0.0372
     11 C4          1.1322    0.2933   -0.0394 C.ar    1  VEA11      -0.0543
     12 C5          2.4660    0.4631   -0.5433 C.ar    1  VEA11      -0.0197
     13 C6          3.5944   -0.1597    0.0273 C.ar    1  VEA11       0.1206
     14 C7          3.3409   -1.0059    1.0962 C.ar    1  VEA11      -0.0197
     15 C8          2.0118   -1.1875    1.5901 C.ar    1  VEA11      -0.0543
     16 C9         -1.9155   -0.4297    1.0323 C.ar    1  VEA11      -0.0372
     17 C10        -2.9015    0.5364    1.3747 C.ar    1  VEA11      -0.0543
     18 C11        -4.2733    0.4619    0.9563 C.ar    1  VEA11      -0.0197
     19 C12        -4.7290   -0.5857    0.1667 C.ar    1  VEA11       0.1206
     20 C13        -3.7504   -1.5092   -0.2452 C.ar    1  VEA11      -0.0197
     21 C14        -2.3805   -1.4350    0.1662 C.ar    1  VEA11      -0.0543
     22 H6         -2.6549    1.3594    2.0433 H       1  VEA11       0.0622
     23 H7         -4.9560    1.2280    1.3114 H       1  VEA11       0.0654
     24 H8         -4.0556   -2.3475   -0.8701 H       1  VEA11       0.0654
     25 H9         -1.7099   -2.2348   -0.1454 H       1  VEA11       0.0622
     26 H10         0.3274    0.8592   -0.5048 H       1  VEA11       0.0622
     27 H11         2.6147    1.1277   -1.3930 H       1  VEA11       0.0654
     28 H12         4.1428   -1.5510    1.5842 H       1  VEA11       0.0654
     29 H13         1.9201   -1.8398    2.4566 H       1  VEA11       0.0622
     30 O           4.8272    0.1030   -0.5476 O.3     1  VEA11      -0.4893
     31 O1         -6.0278   -0.8379   -0.2391 O.3     1  VEA11      -0.4893
     32 C15         6.0659   -0.1640    0.1857 C.3     1  VEA11       0.1186
     33 C16         7.3634    0.1187   -0.6903 C.3     1  VEA11       0.1230
     34 H14         6.0784   -1.2142    0.4968 H       1  VEA11       0.0724
     35 H15         6.0741    0.4920    1.0630 H       1  VEA11       0.0724
     36 C17         8.6869    0.2860    0.1376 C.3     1  VEA11       0.1215
     37 O2          7.5436   -0.9925   -1.5871 O.3     1  VEA11      -0.3850
     38 H16         7.2015    1.0014   -1.3171 H       1  VEA11       0.0662
     39 H17         8.4512   -0.9485   -1.9377 H       1  VEA11       0.2101
     40 O3          9.8204    0.8791   -0.6205 O.3     1  VEA11      -0.4615
     41 H18         8.9909   -0.6723    0.5711 H       1  VEA11       0.0725
     42 H19         8.5024    0.9910    0.9551 H       1  VEA11       0.0725
     43 C18        11.0416    0.2326   -0.6413 C.2     1  VEA11       0.3142
     44 C19        12.3075    1.1754   -0.8900 C.3     1  VEA11       0.0801
     45 O4         11.1321   -0.9743   -0.4501 O.2     1  VEA11      -0.2502
     46 C20        13.4363    0.8940    0.2143 C.3     1  VEA11      -0.0357
     47 C21        11.8302    2.6302   -0.5773 C.3     1  VEA11      -0.0484
     48 H24        11.0752    2.9852   -1.2851 H       1  VEA11       0.0241
     49 H25        12.6514    3.3506   -0.5676 H       1  VEA11       0.0241
     50 H26        11.3676    2.6817    0.4165 H       1  VEA11       0.0241
     51 C22        -7.1487    0.0103    0.1690 C.3     1  VEA11       0.1186
     52 C23        -8.5521   -0.6393   -0.2099 C.3     1  VEA11       0.1230
     53 H27        -7.0424    0.9706   -0.3457 H       1  VEA11       0.0724
     54 H28        -7.1066    0.1514    1.2549 H       1  VEA11       0.0724
     55 C24        -9.7918    0.3325   -0.1680 C.3     1  VEA11       0.1215
     56 O5         -8.8141   -1.7124    0.7123 O.3     1  VEA11      -0.3850
     57 H29        -8.4826   -1.0978   -1.2024 H       1  VEA11       0.0662
     58 H30        -9.6762   -2.0920    0.4624 H       1  VEA11       0.2101
     59 O6        -11.0779   -0.3412   -0.4972 O.3     1  VEA11      -0.4615
     60 H31        -9.6366    1.1478   -0.8825 H       1  VEA11       0.0725
     61 H32        -9.9025    0.7345    0.8452 H       1  VEA11       0.0725
     62 C25       -12.1920    0.4782   -0.6215 C.2     1  VEA11       0.3132
     63 C26       -13.5489   -0.2710   -0.9410 C.3     1  VEA11       0.0667
     64 C27       -14.1393   -0.9973    0.3639 C.3     1  VEA11      -0.0222
     65 O7        -12.1258    1.6950   -0.4816 O.2     1  VEA11      -0.2502
     66 C28       -13.2431   -1.3844   -1.9663 C.3     1  VEA11      -0.0494
     67 H37       -12.7375   -0.9889   -2.8527 H       1  VEA11       0.0240
     68 H38       -14.1599   -1.8896   -2.2907 H       1  VEA11       0.0240
     69 H39       -12.5867   -2.1518   -1.5405 H       1  VEA11       0.0240
     70 H          26.5854   -0.2846    7.7462 H       1  UNL11       0.0241
     71 H          25.5559   -1.0897    8.9438 H       1  UNL11       0.0241
     72 C          26.4161   -1.2285    8.2784 C.3     1  UNL11      -0.0517
     73 H          24.2175   -0.3830    7.2433 H       1  UNL11       0.0622
     74 H          27.2901   -1.3954    8.9212 H       1  UNL11       0.0241
     75 H          38.2261    0.9752    3.6975 H       1  UNL11       0.0237
     76 O          35.4505    0.5473    4.0033 O.2     1  UNL11      -0.2506
     77 H          22.2672   -0.2040    5.8321 H       1  UNL11       0.0654
     78 O          15.7507    0.7036    2.5698 O.2     1  UNL11      -0.2505
     79 H          36.7185    1.4825    1.6308 H       1  UNL11       0.0237
     80 C          24.0747   -1.1522    6.4889 C.ar    1  UNL11      -0.0543
     81 H          17.6521   -0.4846    4.1306 H       1  UNL11       0.0725
     82 C          22.9318   -1.0465    5.6741 C.ar    1  UNL11      -0.0197
     83 C          38.3207   -0.0499    3.3223 C.3     1  UNL11      -0.0525
     84 H          20.7967   -0.1189    3.9066 H       1  UNL11       0.0724
     85 H          27.1603   -0.9670    5.1375 H       1  UNL11       0.0622
     86 H          18.5307    0.4503    2.8655 H       1  UNL11       0.0725
     87 C          26.2018   -2.4141    7.3007 C.3     1  UNL11       0.0151
     88 H          20.1830   -1.2414    5.1766 H       1  UNL11       0.0724
     89 C          36.8660    0.4412    1.3233 C.3     1  UNL11      -0.0525
     90 C          35.8671   -0.4441    3.4205 C.2     1  UNL11       0.3097
     91 H          38.4638   -0.7054    4.1883 H       1  UNL11       0.0237
     92 H          39.2226   -0.1028    2.7036 H       1  UNL11       0.0237
     93 C          18.1657   -0.5378    3.1652 C.3     1  UNL11       0.1215
     94 C          16.1008   -0.2817    1.9291 C.2     1  UNL11       0.3100
     95 C          27.8757   -1.7108    5.4836 C.ar    1  UNL11      -0.0543
     96 C          24.9870   -2.2161    6.3541 C.ar    1  UNL11      -0.0372
     97 H          16.2985    0.6919   -0.6001 H       1  UNL11       0.0238
     98 C          20.4874   -1.1463    4.1276 C.3     1  UNL11       0.1186
     99 C          37.0909   -0.4686    2.5249 C.3     1  UNL11       0.0508
    100 H          34.4134   -1.4908    5.3448 H       1  UNL11       0.0725
    101 C          27.5484   -2.5709    6.5469 C.ar    1  UNL11      -0.0372
    102 H          24.8670   -3.5370    8.6458 H       1  UNL11       0.0241
    103 H          37.7230    0.4064    0.6425 H       1  UNL11       0.0237
    104 H          26.5719   -3.7769    9.0027 H       1  UNL11       0.0241
    105 H          29.3515   -1.0884    4.0419 H       1  UNL11       0.0654
    106 C          29.1288   -1.7717    4.8577 C.ar    1  UNL11      -0.0197
    107 C          25.8559   -3.6455    8.1827 C.3     1  UNL11      -0.0517
    108 C          13.9054   -0.5495    0.5039 C.3     1  UNL11      -0.0393
    109 H          35.9754    0.1338    0.7646 H       1  UNL11       0.0237
    110 H          33.3657   -1.0653    3.9453 H       1  UNL11       0.0725
    111 C          22.6694   -2.0050    4.7023 C.ar    1  UNL11       0.1206
    112 O          17.2294   -1.0166    2.1669 O.3     1  UNL11      -0.4617
    113 C          34.1262   -1.7582    4.3210 C.3     1  UNL11       0.1215
    114 C          16.2653   -0.3961   -0.5139 C.3     1  UNL11      -0.0523
    115 C          19.3200   -1.5559    3.2096 C.3     1  UNL11       0.1230
    116 C          15.4228   -0.8261    0.6770 C.3     1  UNL11       0.0537
    117 O          35.3011   -1.6822    3.4843 O.3     1  UNL11      -0.4617
    118 C          28.5337   -3.4913    6.9493 C.ar    1  UNL11      -0.0543
    119 C          30.0992   -2.6790    5.2824 C.ar    1  UNL11       0.1206
    120 O          21.5936   -2.0285    3.8586 O.3     1  UNL11      -0.4893
    121 C          24.7163   -3.1612    5.3486 C.ar    1  UNL11      -0.0543
    122 H          17.3037   -0.7319   -0.4097 H       1  UNL11       0.0238
    123 C          29.7907   -3.5460    6.3264 C.ar    1  UNL11      -0.0197
    124 H          28.3615   -4.1770    7.7747 H       1  UNL11       0.0622
    125 H          32.5757   -3.1450    6.1651 H       1  UNL11       0.0724
    126 H          37.2465   -1.4922    2.1623 H       1  UNL11       0.0408
    127 O          31.2902   -2.6185    4.6094 O.3     1  UNL11      -0.4893
    128 O          18.7836   -2.8111    3.6679 O.3     1  UNL11      -0.3850
    129 C          23.5781   -3.0523    4.5361 C.ar    1  UNL11      -0.0197
    130 H          25.8453   -4.5764    7.6031 H       1  UNL11       0.0241
    131 H          15.8841   -0.8274   -1.4394 H       1  UNL11       0.0238
    132 H          19.6969   -1.7401    2.1960 H       1  UNL11       0.0662
    133 C          32.3614   -3.4128    5.1220 C.3     1  UNL11       0.1186
    134 H          18.0884   -3.0569    3.0310 H       1  UNL11       0.2101
    135 C          33.6204   -3.2041    4.2747 C.3     1  UNL11       0.1230
    136 H          15.4986   -1.9203    0.7603 H       1  UNL11       0.0411
    137 H          30.5046   -4.2758    6.6948 H       1  UNL11       0.0654
    138 H          25.3852   -4.0065    5.1949 H       1  UNL11       0.0622
    139 O          34.6525   -4.0818    4.7501 O.3     1  UNL11      -0.3850
    140 H          35.4571   -3.8455    4.2512 H       1  UNL11       0.2101
    141 H          23.3914   -3.8080    3.7765 H       1  UNL11       0.0654
    142 H          33.4187   -3.4790    3.2326 H       1  UNL11       0.0662
    143 H          32.0963   -4.4772    5.0866 H       1  UNL11       0.0724
    144 H         -23.3831   -2.4714   10.4331 H       1  UNL11       0.0241
    145 H         -23.7673   -3.6583   11.6934 H       1  UNL11       0.0241
    146 C         -23.1531   -3.4779   10.8022 C.3     1  UNL11      -0.0517
    147 H         -25.6362   -2.9787   10.4436 H       1  UNL11       0.0622
    148 H         -22.1072   -3.4641   11.1332 H       1  UNL11       0.0241
    149 H         -13.9857    0.8223    3.3705 H       1  UNL11       0.0240
    150 O         -14.6651   -2.2915    3.0328 O.2     1  UNL11      -0.2502
    151 H         -27.9506   -3.2657    9.8465 H       1  UNL11       0.0654
    152 O         -34.1886   -1.9403    6.9039 O.2     1  UNL11      -0.2506
    153 H         -15.4751    1.6325    0.7738 H       1  UNL11       0.0240
    154 C         -25.8756   -3.7904    9.7616 C.ar    1  UNL11      -0.0543
    155 H         -32.5648   -3.2583    8.6325 H       1  UNL11       0.0725
    156 C         -27.2290   -3.9517    9.4149 C.ar    1  UNL11      -0.0197
    157 C         -13.6297    0.4760    2.3928 C.3     1  UNL11      -0.0496
    158 H         -29.6020   -3.3231    8.0385 H       1  UNL11       0.0724
    159 H         -23.7125   -2.7747    7.6048 H       1  UNL11       0.0622
    160 H         -36.9813   -2.5861    6.8000 H       1  UNL11       0.0237
    161 H         -31.7631   -2.7567    7.1016 H       1  UNL11       0.0725
    162 C         -23.3878   -4.5640    9.7176 C.3     1  UNL11       0.0151
    163 H         -30.0564   -4.2116    9.5396 H       1  UNL11       0.0724
    164 C         -15.8501    0.7652    1.3192 C.3     1  UNL11      -0.0496
    165 C         -15.3116   -1.3338    2.6214 C.2     1  UNL11       0.3129
    166 H         -12.7720   -0.1802    2.5764 H       1  UNL11       0.0240
    167 H         -13.2769    1.3540    1.8448 H       1  UNL11       0.0240
    168 C         -32.2200   -3.5905    7.6464 C.3     1  UNL11       0.1215
    169 C         -34.2762   -3.1196    6.5904 C.2     1  UNL11       0.3097
    170 C         -22.7347   -3.2535    7.5920 C.ar    1  UNL11      -0.0543
    171 C         -24.8756   -4.6543    9.2743 C.ar    1  UNL11      -0.0372
    172 H         -35.7808   -1.9412    4.5827 H       1  UNL11       0.0237
    173 C         -29.9127   -4.2882    8.4552 C.3     1  UNL11       0.1186
    174 C         -14.7434   -0.2580    1.6292 C.3     1  UNL11       0.0632
    175 H         -16.2412   -1.7179    5.0020 H       1  UNL11       0.0725
    176 C         -22.4098   -4.2237    8.5565 C.ar    1  UNL11      -0.0372
    177 H         -23.8194   -6.1747   11.1616 H       1  UNL11       0.0241
    178 H         -16.6716    0.3086    0.7563 H       1  UNL11       0.0240
    179 H         -22.0993   -5.8901   10.9384 H       1  UNL11       0.0241
    180 H         -22.1037   -2.0987    5.8816 H       1  UNL11       0.0654
    181 C         -21.8100   -2.8568    6.6036 C.ar    1  UNL11      -0.0197
    182 C         -23.0598   -5.9194   10.4108 C.3     1  UNL11      -0.0517
    183 C         -36.7110   -3.6274    6.5921 C.3     1  UNL11      -0.0525
    184 H         -16.2863    1.1759    2.2389 H       1  UNL11       0.0240
    185 H         -17.8225   -0.9955    4.6725 H       1  UNL11       0.0725
    186 C         -27.6202   -4.9829    8.5681 C.ar    1  UNL11       0.1206
    187 O         -33.3607   -4.0786    6.9084 O.3     1  UNL11      -0.4617
    188 H         -36.6089   -4.1395    7.5549 H       1  UNL11       0.0237
    189 C         -17.0676   -1.6865    4.2824 C.3     1  UNL11       0.1215
    190 C         -35.5404   -3.0021    4.4506 C.3     1  UNL11      -0.0525
    191 C         -31.2207   -4.7429    7.7875 C.3     1  UNL11       0.1230
    192 C         -35.4179   -3.7185    5.7910 C.3     1  UNL11       0.0508
    193 O         -16.5852   -1.0765    3.0447 O.3     1  UNL11      -0.4615
    194 C         -21.1155   -4.7725    8.4768 C.ar    1  UNL11      -0.0543
    195 C         -20.5269   -3.4075    6.5414 C.ar    1  UNL11       0.1206
    196 O         -28.8993   -5.2658    8.1752 O.3     1  UNL11      -0.4893
    197 C         -25.2920   -5.6765    8.4023 C.ar    1  UNL11      -0.0543
    198 H         -37.5402   -4.0906    6.0470 H       1  UNL11       0.0237
    199 H         -34.6001   -3.0594    3.8917 H       1  UNL11       0.0237
    200 C         -20.1908   -4.3735    7.4878 C.ar    1  UNL11      -0.0197
    201 H         -20.7771   -5.5099    9.2009 H       1  UNL11       0.0622
    202 H         -17.8111   -3.4357    6.2354 H       1  UNL11       0.0724
    203 O         -19.7044   -2.9147    5.5506 O.3     1  UNL11      -0.4893
    204 O         -31.8284   -5.7784    8.5785 O.3     1  UNL11      -0.3850
    205 C         -26.6434   -5.8433    8.0674 C.ar    1  UNL11      -0.0197
    206 H         -23.0124   -6.7500    9.6972 H       1  UNL11       0.0241
    207 H         -36.3278   -3.4539    3.8381 H       1  UNL11       0.0237
    208 H         -31.0136   -5.1867    6.8067 H       1  UNL11       0.0662
    209 C         -18.4490   -3.5840    5.3544 C.3     1  UNL11       0.1186
    210 H         -32.6534   -6.0233    8.1210 H       1  UNL11       0.2101
    211 C         -17.6920   -3.0840    4.0922 C.3     1  UNL11       0.1230
    212 H         -35.1999   -4.7759    5.5970 H       1  UNL11       0.0408
    213 H         -19.2078   -4.8334    7.5074 H       1  UNL11       0.0654
    214 H         -24.5685   -6.3753    7.9872 H       1  UNL11       0.0622
    215 O         -16.6694   -4.0540    3.8092 O.3     1  UNL11      -0.3850
    216 H         -15.8807   -3.5934    3.4544 H       1  UNL11       0.2101
    217 H         -26.9354   -6.6610    7.4126 H       1  UNL11       0.0654
    218 H         -18.3700   -3.0635    3.2322 H       1  UNL11       0.0662
    219 H         -18.6249   -4.6617    5.2391 H       1  UNL11       0.0724
    220 H         -26.2962    5.4054   -6.1339 H       1  UNL11       0.0241
    221 H         -27.5274    4.8285   -5.0004 H       1  UNL11       0.0241
    222 C         -26.6012    4.5508   -5.5180 C.3     1  UNL11      -0.0517
    223 H         -28.6108    5.3510   -6.8485 H       1  UNL11       0.0622
    224 H         -25.8382    4.4200   -4.7403 H       1  UNL11       0.0241
    225 H         -14.1050    1.7806   -4.8380 H       1  UNL11       0.0238
    226 O         -16.9207    2.1375   -2.2544 O.2     1  UNL11      -0.2505
    227 H         -30.5228    5.3790   -8.2916 H       1  UNL11       0.0654
    228 O         -36.7050    6.4859  -11.1463 O.2     1  UNL11      -0.2506
    229 C         -28.7204    4.5110   -7.5294 C.ar    1  UNL11      -0.0543
    230 H         -34.9995    5.1297   -9.6053 H       1  UNL11       0.0725
    231 C         -29.8539    4.5276   -8.3629 C.ar    1  UNL11      -0.0197
    232 C         -13.8791    1.6773   -3.7709 C.3     1  UNL11      -0.0523
    233 H         -32.0340    5.2233  -10.0963 H       1  UNL11       0.0724
    234 H         -24.9918    4.5285   -8.1126 H       1  UNL11       0.0622
    235 H         -39.4568    5.9059  -11.3763 H       1  UNL11       0.0237
    236 H         -34.2166    5.7702  -11.0917 H       1  UNL11       0.0725
    237 C         -26.7730    3.2557   -6.3659 C.3     1  UNL11       0.0151
    238 H         -32.5683    4.2429   -8.6829 H       1  UNL11       0.0724
    239 C         -14.6676    0.6862   -1.5370 C.3     1  UNL11      -0.0248
    240 C         -16.3336    1.6300   -3.2063 C.2     1  UNL11       0.3100
    241 H         -13.7873    2.6875   -3.3581 H       1  UNL11       0.0238
    242 H         -12.9086    1.1819   -3.6821 H       1  UNL11       0.0238
    243 C         -34.6389    4.8808  -10.6106 C.3     1  UNL11       0.1215
    244 C         -36.7457    5.3390  -11.5714 C.2     1  UNL11       0.3097
    245 C         -24.5351    3.6838   -7.5983 C.ar    1  UNL11      -0.0543
    246 C         -27.8138    3.4288   -7.5096 C.ar    1  UNL11      -0.0372
    247 H         -38.2331    6.5614  -13.5657 H       1  UNL11       0.0237
    248 C         -32.3317    4.2256   -9.7544 C.3     1  UNL11       0.1186
    249 C         -14.9715    0.8920   -3.0646 C.3     1  UNL11       0.0546
    250 H         -18.8195    1.3051   -3.9152 H       1  UNL11       0.0725
    251 C         -25.3218    2.8545   -6.7763 C.ar    1  UNL11      -0.0372
    252 H         -28.4458    2.5262   -5.1202 H       1  UNL11       0.0241
    253 H         -26.8634    2.1134   -4.4708 H       1  UNL11       0.0241
    254 H         -22.5590    4.1882   -8.3244 H       1  UNL11       0.0654
    255 C         -23.1355    3.4988   -7.7121 C.ar    1  UNL11      -0.0197
    256 C         -27.4299    2.2209   -5.4033 C.3     1  UNL11      -0.0517
    257 C         -39.1933    4.8631  -11.5865 C.3     1  UNL11      -0.0525
    258 H         -18.3450    3.0179   -4.0700 H       1  UNL11       0.0725
    259 C         -30.1216    3.4591   -9.2095 C.ar    1  UNL11       0.1206
    260 O         -35.7634    4.4077  -11.3867 O.3     1  UNL11      -0.4617
    261 H         -39.1035    4.3459  -10.6254 H       1  UNL11       0.0237
    262 C         -18.2549    2.0221   -4.5233 C.3     1  UNL11       0.1215
    263 C         -38.0093    5.4986  -13.7123 C.3     1  UNL11      -0.0525
    264 C         -33.5820    3.7672  -10.5333 C.3     1  UNL11       0.1230
    265 C         -37.8947    4.7634  -12.3811 C.3     1  UNL11       0.0508
    266 O         -16.8599    1.6024   -4.4779 O.3     1  UNL11      -0.4617
    267 C         -24.6548    1.7669   -6.1773 C.ar    1  UNL11      -0.0543
    268 C         -22.4803    2.4873   -7.0042 C.ar    1  UNL11       0.1206
    269 O         -31.2376    3.3194   -9.9970 O.3     1  UNL11      -0.4893
    270 C         -28.0548    2.3978   -8.4332 C.ar    1  UNL11      -0.0543
    271 H         -40.0240    4.4110  -12.1393 H       1  UNL11       0.0237
    272 H         -37.0725    5.4340  -14.2757 H       1  UNL11       0.0237
    273 C         -23.2626    1.5845   -6.2905 C.ar    1  UNL11      -0.0197
    274 H         -25.1885    1.0526   -5.5554 H       1  UNL11       0.0622
    275 H         -20.7310    2.9594   -5.1117 H       1  UNL11       0.0724
    276 H         -15.1038   -0.0897   -3.5334 H       1  UNL11       0.0411
    277 O         -21.1016    2.4146   -7.0833 O.3     1  UNL11      -0.4893
    278 O         -34.1698    2.6345   -9.8704 O.3     1  UNL11      -0.3850
    279 C         -29.1919    2.4165   -9.2677 C.ar    1  UNL11      -0.0197
    280 H         -27.5116    1.2281   -5.8627 H       1  UNL11       0.0241
    281 H         -38.8066    5.0681  -14.3278 H       1  UNL11       0.0237
    282 H         -33.3080    3.4296  -11.5388 H       1  UNL11       0.0662
    283 C         -20.4531    2.1617   -5.8105 C.3     1  UNL11       0.1186
    284 H         -34.9797    2.4161  -10.3669 H       1  UNL11       0.2101
    285 C         -18.8998    2.0877   -5.9378 C.3     1  UNL11       0.1230
    286 H         -37.6931    3.7043  -12.5818 H       1  UNL11       0.0408
    287 H         -22.8210    0.7274   -5.7926 H       1  UNL11       0.0654
    288 H         -27.4006    1.5286   -8.4682 H       1  UNL11       0.0622
    289 O         -18.5581    0.9182   -6.6920 O.3     1  UNL11      -0.3850
    290 H         -18.9960    1.0166   -7.5586 H       1  UNL11       0.2101
    291 H         -29.3766    1.5774   -9.9352 H       1  UNL11       0.0654
    292 H         -18.5106    2.9489   -6.4924 H       1  UNL11       0.0662
    293 H         -20.7875    1.1929   -5.4244 H       1  UNL11       0.0724
    294 H          25.7298    3.8523   -1.2254 H       1  UNL11       0.0241
    295 H          24.9170    3.0936    0.1545 H       1  UNL11       0.0241
    296 C          25.6886    2.9456   -0.6100 C.3     1  UNL11      -0.0517
    297 H          23.3043    3.5579   -1.3389 H       1  UNL11       0.0622
    298 H          26.6467    2.8737   -0.0783 H       1  UNL11       0.0241
    299 H          37.3705    5.2307   -5.3335 H       1  UNL11       0.0237
    300 O          34.6059    4.8046   -5.0114 O.2     1  UNL11      -0.2506
    301 H          21.1091    3.4455   -2.3320 H       1  UNL11       0.0654
    302 O          14.2855    3.1233   -2.2223 O.2     1  UNL11      -0.2502
    303 H          35.8710    5.7450   -7.4034 H       1  UNL11       0.0237
    304 C          23.1056    2.7277   -2.0120 C.ar    1  UNL11      -0.0543
    305 H          16.7416    2.3765   -2.0762 H       1  UNL11       0.0725
    306 C          21.8154    2.6591   -2.5770 C.ar    1  UNL11      -0.0197
    307 C          37.4613    4.2052   -5.7086 C.3     1  UNL11      -0.0525
    308 H          19.0622    3.0720   -3.5968 H       1  UNL11       0.0724
    309 H          26.1880    3.0758   -3.7419 H       1  UNL11       0.0622
    310 H          11.8128    2.7634   -3.3204 H       1  UNL11       0.0240
    311 H          16.3759    2.9980   -3.7068 H       1  UNL11       0.0725
    312 C          25.4212    1.6755   -1.4653 C.3     1  UNL11       0.0151
    313 H          19.2185    1.9442   -2.2064 H       1  UNL11       0.0724
    314 C          36.0171    4.7037   -7.7114 C.3     1  UNL11      -0.0525
    315 C          35.0023    3.8200   -5.6190 C.2     1  UNL11       0.3097
    316 H          37.6003    3.5488   -4.8428 H       1  UNL11       0.0237
    317 H          38.3646    4.1492   -6.3254 H       1  UNL11       0.0237
    318 C          16.5325    2.0891   -3.1133 C.3     1  UNL11       0.1215
    319 C          14.2266    1.9425   -2.5524 C.2     1  UNL11       0.3139
    320 C          26.9418    2.3564   -3.4277 C.ar    1  UNL11      -0.0543
    321 C          24.0843    1.7443   -2.2593 C.ar    1  UNL11      -0.0372
    322 H          13.5088   -0.3971   -3.9004 H       1  UNL11       0.0240
    323 C          19.0932    2.0192   -3.2940 C.3     1  UNL11       0.1186
    324 C          36.2312    3.7917   -6.5094 C.3     1  UNL11       0.0508
    325 H          33.5252    2.7757   -3.7251 H       1  UNL11       0.0725
    326 C          26.6969    1.5065   -2.3353 C.ar    1  UNL11      -0.0372
    327 H          24.2997    0.6293    0.1196 H       1  UNL11       0.0241
    328 H          36.8788    4.6676   -8.3864 H       1  UNL11       0.0237
    329 H          26.0424    0.4741    0.2872 H       1  UNL11       0.0241
    330 H          28.3384    3.0245   -4.9316 H       1  UNL11       0.0654
    331 C          28.1740    2.3363   -4.1058 C.ar    1  UNL11      -0.0197
    332 C          25.2307    0.5129   -0.4493 C.3     1  UNL11      -0.0517
    333 C          11.9340    1.6814   -3.4357 C.3     1  UNL11      -0.0486
    334 H          35.1297    4.3997   -8.2768 H       1  UNL11       0.0237
    335 H          32.4709    3.2091   -5.1177 H       1  UNL11       0.0725
    336 C          21.4589    1.5992   -3.4051 C.ar    1  UNL11       0.1206
    337 O          15.3032    1.2960   -3.1151 O.3     1  UNL11      -0.4615
    338 H          10.9476    1.2118   -3.3694 H       1  UNL11       0.0240
    339 C          33.2327    2.5145   -4.7490 C.3     1  UNL11       0.1215
    340 C          13.1654   -0.3650   -2.8581 C.3     1  UNL11      -0.0486
    341 C          17.7564    1.3229   -3.6803 C.3     1  UNL11       0.1230
    342 C          12.9189    1.0849   -2.3990 C.3     1  UNL11       0.0775
    343 O          34.4057    2.5945   -5.5916 O.3     1  UNL11      -0.4617
    344 C          27.7303    0.6161   -1.9831 C.ar    1  UNL11      -0.0543
    345 C          29.2010    1.4756   -3.7134 C.ar    1  UNL11       0.1206
    346 O          20.2141    1.3908   -3.9526 O.3     1  UNL11      -0.4893
    347 C          23.7310    0.7231   -3.1593 C.ar    1  UNL11      -0.0543
    348 H          12.3046    1.5332   -4.4583 H       1  UNL11       0.0240
    349 H          13.9383   -0.8630   -2.2783 H       1  UNL11       0.0240
    350 C          28.9618    0.6000   -2.6591 C.ar    1  UNL11      -0.0197
    351 H          27.6258   -0.0677   -1.1445 H       1  UNL11       0.0622
    352 H          31.7179    1.1156   -2.8916 H       1  UNL11       0.0724
    353 H          36.3855    2.7675   -6.8710 H       1  UNL11       0.0408
    354 O          30.3743    1.5880   -4.4162 O.3     1  UNL11      -0.4893
    355 O          17.7645   -0.0120   -3.1602 O.3     1  UNL11      -0.3850
    356 C          22.4412    0.6574   -3.7242 C.ar    1  UNL11      -0.0197
    357 H          25.1883   -0.4631   -0.9479 H       1  UNL11       0.0241
    358 H          12.2545   -0.9686   -2.8106 H       1  UNL11       0.0240
    359 H          17.6800    1.2322   -4.7696 H       1  UNL11       0.0662
    360 C          31.4885    0.8348   -3.9281 C.3     1  UNL11       0.1186
    361 H          16.9437   -0.4311   -3.4748 H       1  UNL11       0.2101
    362 C          32.7280    1.0679   -4.8008 C.3     1  UNL11       0.1230
    363 H          29.7149   -0.1011   -2.3135 H       1  UNL11       0.0654
    364 H          24.4438   -0.0649   -3.3981 H       1  UNL11       0.0622
    365 O          33.7774    0.1918   -4.3556 O.3     1  UNL11      -0.3850
    366 H          34.5694    0.4399   -4.8688 H       1  UNL11       0.2101
    367 H          22.1954   -0.1672   -4.3893 H       1  UNL11       0.0654
    368 H          32.5085    0.8021   -5.8415 H       1  UNL11       0.0662
    369 H          31.2570   -0.2379   -3.9503 H       1  UNL11       0.0724
    370 H          13.4028   -0.8803    1.4227 H       1  UNL11       0.0273
    371 H          13.5506   -1.2244   -0.2768 H       1  UNL11       0.0273
    372 H          13.0512    1.2702    1.1735 H       1  UNL11       0.0276
    373 H          14.3020    1.5305    0.0048 H       1  UNL11       0.0276
    374 H         -14.9327   -1.6741    0.0098 H       1  UNL11       0.0286
    375 H         -13.3495   -1.6678    0.7339 H       1  UNL11       0.0286
    376 H         -14.5426    1.6836   -1.0998 H       1  UNL11       0.0283
    377 H         -15.6168    0.2910   -1.1594 H       1  UNL11       0.0283
@<TRIPOS>BOND
     1    68    66    1
     2    69    66    1
     3    66    67    1
     4    66    63    1
     5    48    47    1
     6    50    47    1
     7    47    49    1
     8    47    44    1
     9    63    62    1
    10    63    64    1
    11    44    43    1
    12    44    46    1
    13    62    65    2
    14    62    59    1
    15    59    55    1
    16    57    52    1
    17    60    55    1
    18    38    33    1
    19    43    40    1
    20    43    45    2
    21    40    36    1
    22    55    52    1
    23    55    61    1
    24    42    36    1
    25    52    56    1
    26    52    51    1
    27    58    56    1
    28    39    37    1
    29    36    33    1
    30    36    41    1
    31    33    37    1
    32    33    32    1
    33    53    51    1
    34    27    12    1
    35    24    20    1
    36    31    51    1
    37    31    19    1
    38    51    54    1
    39    30    32    1
    40    30    13    1
    41    34    32    1
    42    32    35    1
    43    12    13   ar
    44    12    11   ar
    45    20    19   ar
    46    20    21   ar
    47    19    18   ar
    48    13    14   ar
    49    26    11    1
    50    11    10   ar
    51    25    21    1
    52    21    16   ar
    53    18    23    1
    54    18    17   ar
    55    14    28    1
    56    14    15   ar
    57    16    17   ar
    58    16     1    1
    59    10    15   ar
    60    10     1    1
    61    17    22    1
    62    15    29    1
    63     1     2    1
    64     1     6    1
    65     5     2    1
    66     8     6    1
    67     2     3    1
    68     2     4    1
    69     6     9    1
    70     6     7    1
    71    70    72    1
    72    72    74    1
    73    72    71    1
    74    80    73    1
    75    82    77    1
    76    82    80   ar
    77    83    75    1
    78    83    91    1
    79    84    98    1
    80    85    95    1
    81    86    93    1
    82    87    72    1
    83    87   107    1
    84    89    79    1
    85    89    99    1
    86    90   117    1
    87    90    76    2
    88    92    83    1
    89    93   115    1
    90    93    81    1
    91    94    78    2
    92    94   112    1
    93    95   101   ar
    94    96    80   ar
    95    96    87    1
    96    98    88    1
    97    99    90    1
    98    99    83    1
    99   101   118   ar
   100   101    87    1
   101   103    89    1
   102   105   106    1
   103   106   119   ar
   104   106    95   ar
   105   107   102    1
   106   107   104    1
   107   109    89    1
   108   110   113    1
   109   111    82   ar
   110   112    93    1
   111   113   135    1
   112   113   100    1
   113   114    97    1
   114   114   116    1
   115   115   132    1
   116   115   128    1
   117   115    98    1
   118   116    94    1
   119   116   108    1
   120   117   113    1
   121   118   124    1
   122   119   123   ar
   123   120    98    1
   124   120   111    1
   125   121    96   ar
   126   122   114    1
   127   123   137    1
   128   123   118   ar
   129   126    99    1
   130   127   133    1
   131   127   119    1
   132   129   111   ar
   133   129   121   ar
   134   130   107    1
   135   131   114    1
   136   133   125    1
   137   134   128    1
   138   135   142    1
   139   135   139    1
   140   135   133    1
   141   136   116    1
   142   138   121    1
   143   140   139    1
   144   141   129    1
   145   143   133    1
   146   144   146    1
   147   146   148    1
   148   146   145    1
   149   154   147    1
   150   156   151    1
   151   156   154   ar
   152   157   149    1
   153   157   166    1
   154   158   173    1
   155   159   170    1
   156   161   168    1
   157   162   146    1
   158   162   182    1
   159   164   153    1
   160   164   174    1
   161   165   193    1
   162   165   150    2
   163   167   157    1
   164   168   191    1
   165   168   155    1
   166   169   152    2
   167   169   187    1
   168   170   176   ar
   169   171   154   ar
   170   171   162    1
   171   173   163    1
   172   174   165    1
   173   174   157    1
   174   176   194   ar
   175   176   162    1
   176   178   164    1
   177   180   181    1
   178   181   195   ar
   179   181   170   ar
   180   182   177    1
   181   182   179    1
   182   183   160    1
   183   183   188    1
   184   184   164    1
   185   185   189    1
   186   186   156   ar
   187   187   168    1
   188   189   211    1
   189   189   175    1
   190   190   172    1
   191   190   192    1
   192   191   208    1
   193   191   204    1
   194   191   173    1
   195   192   169    1
   196   192   183    1
   197   193   189    1
   198   194   201    1
   199   195   200   ar
   200   196   173    1
   201   196   186    1
   202   197   171   ar
   203   198   183    1
   204   199   190    1
   205   200   213    1
   206   200   194   ar
   207   203   209    1
   208   203   195    1
   209   205   186   ar
   210   205   197   ar
   211   206   182    1
   212   207   190    1
   213   209   202    1
   214   210   204    1
   215   211   218    1
   216   211   215    1
   217   211   209    1
   218   212   192    1
   219   214   197    1
   220   216   215    1
   221   217   205    1
   222   219   209    1
   223   220   222    1
   224   222   224    1
   225   222   221    1
   226   229   223    1
   227   231   227    1
   228   231   229   ar
   229   232   225    1
   230   232   241    1
   231   233   248    1
   232   234   245    1
   233   236   243    1
   234   237   222    1
   235   237   256    1
   236   239   249    1
   237   240   266    1
   238   240   226    2
   239   242   232    1
   240   243   264    1
   241   243   230    1
   242   244   228    2
   243   244   260    1
   244   245   251   ar
   245   246   229   ar
   246   246   237    1
   247   248   238    1
   248   249   240    1
   249   249   232    1
   250   251   267   ar
   251   251   237    1
   252   254   255    1
   253   255   268   ar
   254   255   245   ar
   255   256   252    1
   256   256   253    1
   257   257   235    1
   258   257   261    1
   259   258   262    1
   260   259   231   ar
   261   260   243    1
   262   262   285    1
   263   262   250    1
   264   263   247    1
   265   263   265    1
   266   264   282    1
   267   264   278    1
   268   264   248    1
   269   265   244    1
   270   265   257    1
   271   266   262    1
   272   267   274    1
   273   268   273   ar
   274   269   248    1
   275   269   259    1
   276   270   246   ar
   277   271   257    1
   278   272   263    1
   279   273   287    1
   280   273   267   ar
   281   276   249    1
   282   277   283    1
   283   277   268    1
   284   279   259   ar
   285   279   270   ar
   286   280   256    1
   287   281   263    1
   288   283   275    1
   289   284   278    1
   290   285   292    1
   291   285   289    1
   292   285   283    1
   293   286   265    1
   294   288   270    1
   295   290   289    1
   296   291   279    1
   297   293   283    1
   298   294   296    1
   299   296   298    1
   300   296   295    1
   301   304   297    1
   302   306   301    1
   303   306   304   ar
   304   307   299    1
   305   307   316    1
   306   308   323    1
   307   309   320    1
   308   311   318    1
   309   312   296    1
   310   312   332    1
   311   314   303    1
   312   314   324    1
   313   315   343    1
   314   315   300    2
   315   317   307    1
   316   318   341    1
   317   318   305    1
   318   319   302    2
   319   319   337    1
   320   320   326   ar
   321   321   304   ar
   322   321   312    1
   323   323   313    1
   324   324   315    1
   325   324   307    1
   326   326   344   ar
   327   326   312    1
   328   328   314    1
   329   330   331    1
   330   331   345   ar
   331   331   320   ar
   332   332   327    1
   333   332   329    1
   334   333   310    1
   335   333   338    1
   336   334   314    1
   337   335   339    1
   338   336   306   ar
   339   337   318    1
   340   339   362    1
   341   339   325    1
   342   340   322    1
   343   340   342    1
   344   341   359    1
   345   341   355    1
   346   341   323    1
   347   342   319    1
   348   342   333    1
   349   343   339    1
   350   344   351    1
   351   345   350   ar
   352   346   323    1
   353   346   336    1
   354   347   321   ar
   355   348   333    1
   356   349   340    1
   357   350   363    1
   358   350   344   ar
   359   353   324    1
   360   354   360    1
   361   354   345    1
   362   356   336   ar
   363   356   347   ar
   364   357   332    1
   365   358   340    1
   366   360   352    1
   367   361   355    1
   368   362   368    1
   369   362   365    1
   370   362   360    1
   371   364   347    1
   372   366   365    1
   373   367   356    1
   374   369   360    1
   375   108    46    1
   376   108   370    1
   377   108   371    1
   378    46   372    1
   379    46   373    1
   380   342    44    1
   381    64   174    1
   382    64   374    1
   383    64   375    1
   384    63   239    1
   385   239   376    1
   386   239   377    1
