@<TRIPOS>MOLECULE
*****
 141 146 0 0 0
SMALL
GASTEIGER

@<TRIPOS>ATOM
      1 C           0.3225    0.5653    5.0380 C.3     1  VEA1        0.0151
      2 C1          0.4429    1.9192    5.7856 C.3     1  VEA1       -0.0517
      3 H           1.3122    1.9260    6.4556 H       1  VEA1        0.0241
      4 H1         -0.4387    2.1201    6.4058 H       1  VEA1        0.0241
      5 H2          0.5635    2.7624    5.0948 H       1  VEA1        0.0241
      6 C2          0.0241   -0.5035    6.1220 C.3     1  VEA1       -0.0517
      7 H3          0.7466   -0.4609    6.9457 H       1  VEA1        0.0241
      8 H4          0.0467   -1.5216    5.7154 H       1  VEA1        0.0241
      9 H5         -0.9691   -0.3523    6.5636 H       1  VEA1        0.0241
     10 C3          1.6787    0.3574    4.3216 C.3     1  VEA1       -0.0372
     11 C4          1.9739    1.0883    3.1545 C.3     1  VEA1       -0.0543
     12 C5          3.1963    0.9378    2.4944 C.3     1  VEA1       -0.0197
     13 C6          4.1684    0.0771    2.9966 C.3     1  VEA1        0.1206
     14 C7          3.8986   -0.6555    4.1492 C.3     1  VEA1       -0.0197
     15 C8          2.6680   -0.5149    4.8051 C.3     1  VEA1       -0.0543
     16 C9         -0.8625    0.5106    4.0425 C.3     1  VEA1       -0.0372
     17 C10        -1.8303    1.5236    3.9553 C.3     1  VEA1       -0.0543
     18 C11        -2.9014    1.4333    3.0550 C.3     1  VEA1       -0.0197
     19 C12        -3.0367    0.3237    2.2228 C.3     1  VEA1        0.1206
     20 C13        -2.0798   -0.6863    2.2886 C.3     1  VEA1       -0.0197
     21 C14        -1.0115   -0.5996    3.1884 C.3     1  VEA1       -0.0543
     22 H6         -1.7811    2.4079    4.5846 H       1  VEA1        0.0622
     23 H7         -3.6105    2.2535    3.0324 H       1  VEA1        0.0654
     24 H8         -2.1692   -1.5558    1.6420 H       1  VEA1        0.0654
     25 H9         -0.2875   -1.4124    3.2119 H       1  VEA1        0.0622
     26 H10         1.2446    1.7823    2.7399 H       1  VEA1        0.0622
     27 H11         3.3909    1.5069    1.5890 H       1  VEA1        0.0654
     28 H12         4.6184   -1.3569    4.5584 H       1  VEA1        0.0654
     29 H13         2.5100   -1.1063    5.7028 H       1  VEA1        0.0622
     30 O           5.3213    0.0067    2.2662 O.2     1  VEA1       -0.4893
     31 O1         -4.0380    0.1220    1.3102 O.2     1  VEA1       -0.4893
     32 C15         6.4921   -0.3768    2.9877 C.3     1  VEA1        0.1186
     33 C16         7.7213   -0.1572    2.1045 C.3     1  VEA1        0.1230
     34 H14         6.4428   -1.4390    3.2572 H       1  VEA1        0.0724
     35 H15         6.5941    0.2085    3.9114 H       1  VEA1        0.0724
     36 C17         7.8494    1.2996    1.6446 C.3     1  VEA1        0.1215
     37 O2          8.8948   -0.5432    2.8325 O.3     1  VEA1       -0.3850
     38 H16         7.6621   -0.8053    1.2221 H       1  VEA1        0.0662
     39 H17         9.6562   -0.3287    2.2603 H       1  VEA1        0.2101
     40 O3          9.0026    1.3721    0.7831 O.3     1  VEA1       -0.4617
     41 H18         8.0246    1.9595    2.5014 H       1  VEA1        0.0725
     42 H19         6.9552    1.6160    1.0972 H       1  VEA1        0.0725
     43 C18         9.1568    2.5331    0.0916 C.2     1  VEA1        0.3097
     44 C19        10.4049    2.5060   -0.8263 C.3     1  VEA1        0.0508
     45 O4          8.3624    3.4648    0.1487 O.2     1  VEA1       -0.2506
     46 C20        11.5716    1.7287   -0.0955 C.3     1  VEA1       -0.0525
     47 H21        12.1538    2.4711    0.4727 H       1  VEA1        0.0237
     48 H22        11.1784    1.1275    0.7281 H       1  VEA1        0.0237
     49 C21        10.8659    3.9939   -0.8908 C.3     1  VEA1       -0.0525
     50 H24        11.8208    4.0975   -1.4163 H       1  VEA1        0.0237
     51 H25        10.9944    4.4160    0.1138 H       1  VEA1        0.0237
     52 H26        10.1270    4.6235   -1.4012 H       1  VEA1        0.0237
     53 C22        -5.1724    0.9888    1.4170 C.3     1  VEA1        0.1186
     54 C23        -6.3143    0.4875    0.5140 C.3     1  VEA1        0.1230
     55 H27        -4.8722    1.9952    1.1021 H       1  VEA1        0.0724
     56 H28        -5.5282    1.0059    2.4556 H       1  VEA1        0.0724
     57 C24        -7.4398    1.5372    0.4979 C.3     1  VEA1        0.1215
     58 O5         -6.7831   -0.7555    1.0572 O.3     1  VEA1       -0.3850
     59 H29        -5.9523    0.2790   -0.4981 H       1  VEA1        0.0662
     60 H30        -7.6950   -0.9128    0.7341 H       1  VEA1        0.2101
     61 O6         -8.3261    1.4376   -0.6394 O.3     1  VEA1       -0.4617
     62 H31        -7.0127    2.5434    0.4294 H       1  VEA1        0.0725
     63 H32        -8.0348    1.4977    1.4189 H       1  VEA1        0.0725
     64 C25        -9.2981    0.4889   -0.5788 C.2     1  VEA1        0.3097
     65 C26       -10.4791    0.7635   -1.5469 C.3     1  VEA1        0.0508
     66 C27       -11.7713    0.3332   -0.7377 C.3     1  VEA1       -0.0525
     67 H34       -11.5152   -0.4770   -0.0533 H       1  VEA1        0.0237
     68 H35       -11.9514    1.1565   -0.0262 H       1  VEA1        0.0237
     69 O7         -9.2355   -0.4581    0.1973 O.2     1  VEA1       -0.2506
     70 C28       -10.5718    2.3089   -1.7609 C.3     1  VEA1       -0.0525
     71 H37       -10.7993    2.8309   -0.8240 H       1  VEA1        0.0237
     72 H38       -11.3361    2.5745   -2.4941 H       1  VEA1        0.0237
     73 H39        -9.6379    2.7463   -2.1277 H       1  VEA1        0.0237
     74 C           9.4547    0.6104   -2.4537 C.3     1  CRO01      -0.0476
     75 C1          8.2071    0.1862   -1.9631 C.3     1  CRO01      -0.0586
     76 C2          7.7758   -1.1354   -2.1136 C.3     1  CRO01      -0.0615
     77 C3          8.5726   -2.0577   -2.7829 C.3     1  CRO01      -0.0617
     78 C4          9.7886   -1.6516   -3.3197 C.3     1  CRO01      -0.0615
     79 C5         10.2174   -0.3293   -3.1677 C.3     1  CRO01      -0.0586
     80 C6          9.8895    2.0679   -2.2677 C.3     1  CRO01      -0.0305
     81 C7         10.7598    2.5762   -3.4402 C.3     1  CRO01      -0.0613
     82 H1          8.9510    2.6272   -2.4225 H       1  CRO01       0.0311
     83 H2         11.7999    2.2504   -3.3732 H       1  CRO01       0.0233
     84 H3         10.7620    3.6699   -3.4881 H       1  CRO01       0.0233
     85 H4         10.3627    2.2331   -4.4030 H       1  CRO01       0.0233
     86 H5         11.1684   -0.0598   -3.6197 H       1  CRO01       0.0620
     87 H6          8.2420   -3.0860   -2.8994 H       1  CRO01       0.0618
     88 H7         10.4118   -2.3629   -3.8561 H       1  CRO01       0.0618
     89 H8          7.5393    0.8874   -1.4672 H       1  CRO01       0.0620
     90 H9          6.8116   -1.4403   -1.7148 H       1  CRO01       0.0618
     91 C          12.6500   -0.5829   -0.4087 C.3     1  CRO11      -0.0476
     92 C1         11.4722   -1.2833   -0.0819 C.3     1  CRO11      -0.0586
     93 C2         11.4966   -2.6155    0.3364 C.3     1  CRO11      -0.0615
     94 C3         12.7055   -3.2929    0.4160 C.3     1  CRO11      -0.0617
     95 C4         13.8833   -2.6358    0.0745 C.3     1  CRO11      -0.0615
     96 C5         13.8560   -1.2969   -0.3353 C.3     1  CRO11      -0.0586
     97 C6         12.5725    0.8678   -0.9077 C.3     1  CRO11      -0.0305
     98 C7         13.9288    1.5930   -0.9560 C.3     1  CRO11      -0.0613
     99 H1         12.2548    0.7909   -1.9415 H       1  CRO11       0.0311
    100 H2         14.4095    1.6113    0.0287 H       1  CRO11       0.0233
    101 H3         13.8066    2.6279   -1.2932 H       1  CRO11       0.0233
    102 H4         14.6139    1.1114   -1.6620 H       1  CRO11       0.0233
    103 H5         14.8030   -0.8374   -0.6027 H       1  CRO11       0.0620
    104 H6         12.7284   -4.3319    0.7320 H       1  CRO11       0.0618
    105 H7         14.8302   -3.1675    0.1196 H       1  CRO11       0.0618
    106 H8         10.5001   -0.8047   -0.1642 H       1  CRO11       0.0620
    107 H9         10.5668   -3.1206    0.5850 H       1  CRO11       0.0618
    108 C         -10.3563   -1.4142   -3.0914 C.3     1  CRO21      -0.0476
    109 C1        -11.2627   -1.9256   -4.0392 C.3     1  CRO21      -0.0586
    110 C2        -11.3563   -3.2964   -4.2854 C.3     1  CRO21      -0.0615
    111 C3        -10.5353   -4.1824   -3.5969 C.3     1  CRO21      -0.0617
    112 C4         -9.6209   -3.6952   -2.6667 C.3     1  CRO21      -0.0615
    113 C5         -9.5267   -2.3218   -2.4200 C.3     1  CRO21      -0.0586
    114 C6        -10.2219    0.0936   -2.9447 C.3     1  CRO21      -0.0305
    115 C7         -8.8744    0.4928   -3.5911 C.3     1  CRO21      -0.0613
    116 H1        -10.9737    0.5291   -3.6149 H       1  CRO21       0.0311
    117 H2         -8.0166    0.1255   -3.0180 H       1  CRO21       0.0233
    118 H3         -8.7744    1.5760   -3.6977 H       1  CRO21       0.0233
    119 H4         -8.7897    0.0725   -4.6012 H       1  CRO21       0.0233
    120 H5         -8.7733   -1.9840   -1.7154 H       1  CRO21       0.0620
    121 H6        -10.6089   -5.2495   -3.7845 H       1  CRO21       0.0618
    122 H7         -8.9702   -4.3846   -2.1350 H       1  CRO21       0.0618
    123 H8        -11.9130   -1.2572   -4.5995 H       1  CRO21       0.0620
    124 H9        -12.0765   -3.6686   -5.0086 H       1  CRO21       0.0618
    125 C         -13.5531   -1.4393   -1.5896 C.3     1  CRO31      -0.0476
    126 C1        -14.6875   -1.7732   -2.3551 C.3     1  CRO31      -0.0586
    127 C2        -15.1090   -3.0997   -2.5110 C.3     1  CRO31      -0.0615
    128 C3        -14.4140   -4.1317   -1.8945 C.3     1  CRO31      -0.0617
    129 C4        -13.3030   -3.8336   -1.1179 C.3     1  CRO31      -0.0615
    130 C5        -12.8858   -2.5061   -0.9610 C.3     1  CRO31      -0.0586
    131 C6        -13.1781    0.0295   -1.3404 C.3     1  CRO31      -0.0305
    132 C7        -13.5793    0.9988   -2.4573 C.3     1  CRO31      -0.0613
    133 H1        -13.8617    0.2825   -0.5122 H       1  CRO31       0.0311
    134 H2        -13.3431    2.0302   -2.1844 H       1  CRO31       0.0233
    135 H3        -14.6612    0.9937   -2.6264 H       1  CRO31       0.0233
    136 H4        -13.1033    0.7553   -3.4092 H       1  CRO31       0.0233
    137 H5        -12.0127   -2.3521   -0.3352 H       1  CRO31       0.0620
    138 H6        -14.7377   -5.1614   -2.0120 H       1  CRO31       0.0618
    139 H7        -12.7477   -4.6307   -0.6303 H       1  CRO31       0.0618
    140 H8        -15.2893   -1.0072   -2.8343 H       1  CRO31       0.0620
    141 H9        -15.9907   -3.3208   -3.1063 H       1  CRO31       0.0618
@<TRIPOS>BOND
     1    72    70    1
     2    73    70    1
     3    70    71    1
     4    70    65    1
     5    50    49    1
     6    52    49    1
     7    49    51    1
     8    49    44    1
     9    65    64    1
    10    65    66    1
    11    67    66    1
    12    44    43    1
    13    44    46    1
    14    64    69    2
    15    64    61    1
    16    66    68    1
    17    47    46    1
    18    61    57    1
    19    59    54    1
    20    62    57    1
    21    38    33    1
    22    43    40    1
    23    43    45    2
    24    46    48    1
    25    40    36    1
    26    57    54    1
    27    57    63    1
    28    42    36    1
    29    54    58    1
    30    54    53    1
    31    60    58    1
    32    39    37    1
    33    36    33    1
    34    36    41    1
    35    33    37    1
    36    33    32    1
    37    55    53    1
    38    27    12    1
    39    24    20    1
    40    31    53    1
    41    31    19    1
    42    53    56    1
    43    30    32    1
    44    30    13    1
    45    34    32    1
    46    32    35    1
    47    12    13   ar
    48    12    11   ar
    49    20    19   ar
    50    20    21   ar
    51    19    18   ar
    52    13    14   ar
    53    26    11    1
    54    11    10   ar
    55    25    21    1
    56    21    16   ar
    57    18    23    1
    58    18    17   ar
    59    14    28    1
    60    14    15   ar
    61    16    17   ar
    62    16     1    1
    63    10    15   ar
    64    10     1    1
    65    17    22    1
    66    15    29    1
    67     1     2    1
    68     1     6    1
    69     5     2    1
    70     8     6    1
    71     2     3    1
    72     2     4    1
    73     6     9    1
    74     6     7    1
    75    82    80    1
    76    85    81    1
    77    89    75    1
    78    75    74   ar
    79    75    76   ar
    80    80    74    1
    81    80    81    1
    82    84    81    1
    83    90    76    1
    84    74    79   ar
    85    76    77   ar
    86    81    83    1
    87    77    87    1
    88    77    78   ar
    89    79    78   ar
    90    79    86    1
    91    78    88    1
    92    99    97    1
    93   102    98    1
    94   106    92    1
    95    92    91   ar
    96    92    93   ar
    97    97    91    1
    98    97    98    1
    99   101    98    1
   100   107    93    1
   101    91    96   ar
   102    93    94   ar
   103    98   100    1
   104    94   104    1
   105    94    95   ar
   106    96    95   ar
   107    96   103    1
   108    95   105    1
   109   116   114    1
   110   119   115    1
   111   123   109    1
   112   109   108   ar
   113   109   110   ar
   114   114   108    1
   115   114   115    1
   116   118   115    1
   117   124   110    1
   118   108   113   ar
   119   110   111   ar
   120   115   117    1
   121   111   121    1
   122   111   112   ar
   123   113   112   ar
   124   113   120    1
   125   112   122    1
   126   133   131    1
   127   136   132    1
   128   140   126    1
   129   126   125   ar
   130   126   127   ar
   131   131   125    1
   132   131   132    1
   133   135   132    1
   134   141   127    1
   135   125   130   ar
   136   127   128   ar
   137   132   134    1
   138   128   138    1
   139   128   129   ar
   140   130   129   ar
   141   130   137    1
   142   129   139    1
   143    80    44    1
   144    97    46    1
   145   114    65    1
   146   131    66    1
