@<TRIPOS>MOLECULE
FDE
    30    32  1  0  0
SMALL
gas

@<TRIPOS>ATOM
      1 O          50.6300   46.4000   34.8600 os      1  FDE       -0.3212
      2 C          49.9000   46.0400   35.9600 cc      1  FDE        0.0455
      3 C3         50.6400   45.9400   37.1200 cd      1  FDE       -0.0364
      4 C4         51.8900   46.5100   35.3900 cc      1  FDE        0.0725
      5 C5         51.9700   46.2600   36.7400 cd      1  FDE       -0.0322
      6 C6         53.0500   46.9500   34.5300 c3      1  FDE        0.0457
      7 N          54.3500   46.4100   34.9700 n3      1  FDE       -0.2919
      8 H          53.0600   48.0500   34.5800 h1      1  FDE        0.0503
      9 H1         52.8500   46.6800   33.4900 h1      1  FDE        0.0503
     10 C7         55.4600   47.3800   34.7900 c3      1  FDE        0.0245
     11 C8         54.6700   45.0700   34.4200 c3      1  FDE        0.0245
     12 C9         53.6500   43.9700   34.7300 c3      1  FDE        0.0639
     13 H2         55.6300   44.7300   34.8200 h1      1  FDE        0.0458
     14 H3         54.7800   45.1400   33.3300 h1      1  FDE        0.0458
     15 C1         53.7000   42.6600   34.0000 c3      1  FDE       -0.0377
     16 H4         54.4600   42.5100   33.2200 hc      1  FDE        0.0257
     17 H6         53.3200   41.7600   34.4800 hc      1  FDE        0.0257
     18 O1         52.7100   43.6500   33.6900 oh      1  FDE       -0.3921
     19 H7         53.2500   43.9600   35.7500 h1      1  FDE        0.0611
     20 C10        56.7300   47.0200   35.5500 c3      1  FDE        0.0639
     21 H8         55.1300   48.3700   35.1400 h1      1  FDE        0.0458
     22 H9         55.6900   47.4800   33.7200 h1      1  FDE        0.0458
     23 O2         57.4200   48.1100   36.1900 oh      1  FDE       -0.3921
     24 C2         56.7800   47.1400   37.0500 c3      1  FDE       -0.0377
     25 H10        57.3800   46.2800   35.0700 h1      1  FDE        0.0611
     26 H11        55.9000   47.5100   37.5800 hc      1  FDE        0.0257
     27 H13        57.4600   46.5100   37.6100 hc      1  FDE        0.0257
     28 H16        48.8400   45.8800   35.8000 h4      1  FDE        0.0902
     29 H17        50.2900   45.6800   38.1100 ha      1  FDE        0.0645
     30 H18        52.8400   46.3100   37.3800 ha      1  FDE        0.0648
@<TRIPOS>BOND
     1     1     2    1
     2     2     3    2
     3     1     4    1
     4     4     5    2
     5     3     5    1
     6     4     6    1
     7     6     7    1
     8     6     8    1
     9     6     9    1
    10     7    10    1
    11     7    11    1
    12    11    12    1
    13    11    13    1
    14    11    14    1
    15    12    15    1
    16    15    16    1
    17    15    17    1
    18    12    18    1
    19    12    19    1
    20    10    20    1
    21    10    21    1
    22    10    22    1
    23    20    23    1
    24    20    24    1
    25    20    25    1
    26    24    26    1
    27    24    27    1
    28     2    28    1
    29     3    29    1
    30     5    30    1
    31    18    15    1
    32    23    24    1
@<TRIPOS>SUBSTRUCTURE
     1 FDE          1 RESIDUE