@<TRIPOS>MOLECULE
*****
 47 48 0 0 0
SMALL
GASTEIGER

@<TRIPOS>ATOM
      1 N1         -5.9668    1.2506   -0.7657 N.3     1  PAC      -0.3297
      2 C          -4.8515    1.9774   -0.1660 C.3     1  PAC      -0.0041
      3 C          -3.5232    1.2225   -0.3683 C.3     1  PAC      -0.0284
      4 H          -5.0453    2.1128    0.9211 H       1  PAC       0.0425
      5 H          -4.7829    2.9853   -0.6340 H       1  PAC       0.0425
      6 C          -2.3568    2.0436    0.2146 C.3     1  PAC      -0.0462
      7 C          -3.5590   -0.1670    0.2986 C.3     1  PAC      -0.0490
      8 C          -0.9980    1.3275    0.0198 C.3     1  PAC      -0.0405
      9 H          -2.5304    2.2144    1.3014 H       1  PAC       0.0271
     10 H          -2.3292    3.0340   -0.2916 H       1  PAC       0.0271
     11 C           0.1230    2.2560    0.5644 C.3     1  PAC      -0.0473
     12 C           1.5880    1.7809    0.3955 C.3     1  PAC      -0.0405
     13 H          -0.0524    2.5373    1.6264 H       1  PAC       0.0271
     14 H           0.0172    3.1839   -0.0425 H       1  PAC       0.0271
     15 C           2.0904    0.7983    1.4676 C.3     1  PAC      -0.0502
     16 C           4.0207    2.7122    0.7624 C.3     1  PAC      -0.0284
     17 C           2.5330    3.0296    0.4180 C.3     1  PAC      -0.0462
     18 C           4.9446    3.7887    0.1644 C.3     1  PAC      -0.0041
     19 N2          6.3387    3.5403    0.5161 N.3     1  PAC      -0.3297
     20 H           4.6441    4.7900    0.5471 H       1  PAC       0.0425
     21 H           4.8445    3.7895   -0.9434 H       1  PAC       0.0425
     22 H          -6.8450    1.7919   -0.5948 H       1  PAC       0.1182
     23 H          -5.8223    1.1957   -1.8003 H       1  PAC       0.1182
     24 H           6.4483    3.6317    1.5523 H       1  PAC       0.1182
     25 H           6.9335    4.2696    0.0593 H       1  PAC       0.1182
     26 H           2.2034    3.7885    1.1623 H       1  PAC       0.0271
     27 H           2.4355    3.4922   -0.5898 H       1  PAC       0.0271
     28 C          -2.2253   -0.8892    0.0849 C.3     1  PAC      -0.0525
     29 C          -1.0596   -0.0729    0.6625 C.3     1  PAC      -0.0502
     30 H          -0.8269    1.1923   -1.0725 H       1  PAC       0.0301
     31 H          -1.1812    0.0208    1.7643 H       1  PAC       0.0268
     32 H          -0.1387   -0.6397    0.4307 H       1  PAC       0.0268
     33 H          -2.0637   -1.0439   -1.0052 H       1  PAC       0.0265
     34 H          -2.2589   -1.8868    0.5735 H       1  PAC       0.0265
     35 C           3.4969    0.2698    1.0769 C.3     1  PAC      -0.0525
     36 C           4.3535    1.2956    0.2894 C.3     1  PAC      -0.0490
     37 H           4.1493    2.7114    1.8694 H       1  PAC       0.0313
     38 H           3.4242   -0.6368    0.4378 H       1  PAC       0.0265
     39 H           3.9962   -0.0258    2.0254 H       1  PAC       0.0265
     40 H           5.4255    1.0265    0.4029 H       1  PAC       0.0268
     41 H           4.1073    1.2492   -0.7952 H       1  PAC       0.0268
     42 H          -3.3527    1.0974   -1.4618 H       1  PAC       0.0313
     43 H          -4.3736   -0.7830   -0.1397 H       1  PAC       0.0268
     44 H          -3.7498   -0.0606    1.3897 H       1  PAC       0.0268
     45 H           1.6846    1.2883   -0.5987 H       1  PAC       0.0301
     46 H           1.4517   -0.0716    1.6889 H       1  PAC       0.0268
     47 H           2.1524    1.3752    2.4179 H       1  PAC       0.0268
@<TRIPOS>BOND
     1     1     2    1
     2     2     3    1
     3     2     4    1
     4     2     5    1
     5     3     6    1
     6     3     7    1
     7     6     8    1
     8     6     9    1
     9     6    10    1
    10     8    11    1
    11    11    12    1
    12    11    13    1
    13    11    14    1
    14    12    15    1
    15    12    17    1
    16    16    18    1
    17    18    19    1
    18    18    20    1
    19    18    21    1
    20     1    22    1
    21     1    23    1
    22    19    24    1
    23    19    25    1
    24    16    17    1
    25    17    26    1
    26    17    27    1
    27     7    28    1
    28     8    29    1
    29     8    30    1
    30    29    28    1
    31    29    31    1
    32    29    32    1
    33    28    33    1
    34    28    34    1
    35    15    35    1
    36    16    36    1
    37    16    37    1
    38    35    36    1
    39    35    38    1
    40    35    39    1
    41    36    40    1
    42    36    41    1
    43     3    42    1
    44     7    43    1
    45     7    44    1
    46    12    45    1
    47    15    46    1
    48    15    47    1
