@<TRIPOS>MOLECULE
*****
 77 78 0 0 0
SMALL
GASTEIGER

@<TRIPOS>ATOM
      1 C          25.1400   24.1200   28.3800 C.3     1  VEA        0.0151
      2 C1         25.3600   25.3900   29.2600 C.3     1  VEA       -0.0517
      3 H          26.2900   25.3000   29.8300 H       1  VEA        0.0241
      4 H1         24.5400   25.5200   29.9700 H       1  VEA        0.0241
      5 H2         25.4300   26.2900   28.6400 H       1  VEA        0.0241
      6 C2         24.9200   22.9400   29.3600 C.3     1  VEA       -0.0517
      7 H3         25.7100   22.8900   30.1200 H       1  VEA        0.0241
      8 H4         24.8900   21.9800   28.8200 H       1  VEA        0.0241
      9 H5         23.9600   23.0500   29.8800 H       1  VEA        0.0241
     10 C3         26.4000   23.9600   27.5200 C.ar    1  VEA       -0.0372
     11 C4         26.5900   24.8100   26.4100 C.ar    1  VEA       -0.0543
     12 C5         27.7600   24.7500   25.6300 C.ar    1  VEA       -0.0197
     13 C6         28.7700   23.8400   25.9500 C.ar    1  VEA        0.1206
     14 C7         28.6000   22.9800   27.0500 C.ar    1  VEA       -0.0197
     15 C8         27.4300   23.0400   27.8300 C.ar    1  VEA       -0.0543
     16 C9         23.8900   24.2100   27.4900 C.ar    1  VEA       -0.0372
     17 C10        22.9300   25.2400   27.6200 C.ar    1  VEA       -0.0543
     18 C11        21.7700   25.2500   26.8200 C.ar    1  VEA       -0.0197
     19 C12        21.5500   24.2200   25.8800 C.ar    1  VEA        0.1206
     20 C13        22.5000   23.2000   25.7400 C.ar    1  VEA       -0.0197
     21 C14        23.6600   23.2000   26.5400 C.ar    1  VEA       -0.0543
     22 H6         23.0500   26.0400   28.3400 H       1  VEA        0.0622
     23 H7         21.0500   26.0500   26.9500 H       1  VEA        0.0654
     24 H8         22.3300   22.4100   25.0200 H       1  VEA        0.0654
     25 H9         24.3700   22.3900   26.4200 H       1  VEA        0.0622
     26 H10        25.8200   25.5400   26.1500 H       1  VEA        0.0622
     27 H11        27.8800   25.4100   24.7800 H       1  VEA        0.0654
     28 H12        29.3600   22.2600   27.3300 H       1  VEA        0.0654
     29 H13        27.3400   22.3800   28.6800 H       1  VEA        0.0622
     30 O          29.9200   23.8400   25.1900 O.3     1  VEA       -0.4893
     31 O1         20.4200   24.1700   25.0900 O.3     1  VEA       -0.4893
     32 C15        31.1100   23.1300   25.5700 C.3     1  VEA        0.1186
     33 C16        32.2500   23.4500   24.5700 C.3     1  VEA        0.1230
     34 H14        30.9200   22.0500   25.5600 H       1  VEA        0.0724
     35 H15        31.4200   23.4300   26.5800 H       1  VEA        0.0724
     36 C17        32.5500   24.9600   24.5300 C.3     1  VEA        0.1215
     37 O2         33.4300   22.7500   24.9600 O.3     1  VEA       -0.3850
     38 H16        31.9400   23.1200   23.5700 H       1  VEA        0.0662
     39 H17        34.1500   23.1800   24.4600 H       1  VEA        0.2101
     40 O3         33.7300   25.1600   23.7200 O.3     1  VEA       -0.4617
     41 H18        32.7100   25.3400   25.5400 H       1  VEA        0.0725
     42 H19        31.7000   25.5000   24.0900 H       1  VEA        0.0725
     43 C18        34.1800   26.4400   23.5800 C.2     1  VEA        0.3097
     44 C19        35.4500   26.5000   22.7200 C.3     1  VEA        0.0508
     45 O4         33.6500   27.4200   24.0700 O.2     1  VEA       -0.2506
     46 C20        36.6500   26.9500   23.5800 C.3     1  VEA       -0.0525
     47 H20        36.4800   27.9600   23.9800 H       1  VEA        0.0237
     48 H21        37.5700   26.9600   22.9900 H       1  VEA        0.0237
     49 H22        36.7900   26.2700   24.4300 H       1  VEA        0.0237
     50 C21        35.2400   27.4400   21.5100 C.3     1  VEA       -0.0525
     51 H23        35.6500   25.4900   22.3400 H       1  VEA        0.0408
     52 H24        36.1400   27.4500   20.8800 H       1  VEA        0.0237
     53 H25        35.0400   28.4700   21.8500 H       1  VEA        0.0237
     54 H26        34.3900   27.1100   20.9000 H       1  VEA        0.0237
     55 C22        19.4000   25.1800   25.1200 C.3     1  VEA        0.1186
     56 C23        18.2400   24.7600   24.1900 C.3     1  VEA        0.1230
     57 H27        19.8200   26.1300   24.7700 H       1  VEA        0.0724
     58 H28        19.0100   25.3100   26.1400 H       1  VEA        0.0724
     59 C24        17.3000   25.9500   23.9000 C.3     1  VEA        0.1215
     60 O5         17.4600   23.7300   24.8100 O.3     1  VEA       -0.3850
     61 H29        18.6500   24.4100   23.2300 H       1  VEA        0.0662
     62 H30        16.6500   23.6600   24.2700 H       1  VEA        0.2101
     63 O6         16.1800   25.4800   23.1200 O.3     1  VEA       -0.4617
     64 H31        17.8400   26.7300   23.3400 H       1  VEA        0.0725
     65 H32        16.9400   26.3900   24.8400 H       1  VEA        0.0725
     66 C25        15.2200   26.3900   22.7800 C.2     1  VEA        0.3097
     67 C26        14.0900   25.7400   21.9800 C.3     1  VEA        0.0508
     68 C27        12.7700   25.8000   22.7900 C.3     1  VEA       -0.0525
     69 H33        12.9000   25.3100   23.7600 H       1  VEA        0.0237
     70 H34        11.9600   25.3000   22.2500 H       1  VEA        0.0237
     71 H35        12.4800   26.8400   22.9700 H       1  VEA        0.0237
     72 O7         15.2600   27.5700   23.0700 O.2     1  VEA       -0.2506
     73 C28        13.9300   26.4200   20.6100 C.3     1  VEA       -0.0525
     74 H36        14.3400   24.6800   21.8200 H       1  VEA        0.0408
     75 H37        13.6700   27.4800   20.7300 H       1  VEA        0.0237
     76 H38        13.1400   25.9300   20.0200 H       1  VEA        0.0237
     77 H39        14.8700   26.3600   20.0400 H       1  VEA        0.0237
@<TRIPOS>BOND
     1    76    73    1
     2    77    73    1
     3    73    75    1
     4    73    67    1
     5    52    50    1
     6    54    50    1
     7    50    53    1
     8    50    44    1
     9    74    67    1
    10    67    66    1
    11    67    68    1
    12    70    68    1
    13    51    44    1
    14    44    43    1
    15    44    46    1
    16    66    72    2
    17    66    63    1
    18    68    71    1
    19    68    69    1
    20    48    46    1
    21    63    59    1
    22    61    56    1
    23    64    59    1
    24    38    33    1
    25    43    40    1
    26    43    45    2
    27    46    47    1
    28    46    49    1
    29    40    36    1
    30    59    56    1
    31    59    65    1
    32    42    36    1
    33    56    60    1
    34    56    55    1
    35    62    60    1
    36    39    37    1
    37    36    33    1
    38    36    41    1
    39    33    37    1
    40    33    32    1
    41    57    55    1
    42    27    12    1
    43    24    20    1
    44    31    55    1
    45    31    19    1
    46    55    58    1
    47    30    32    1
    48    30    13    1
    49    34    32    1
    50    32    35    1
    51    12    13   ar
    52    12    11   ar
    53    20    19   ar
    54    20    21   ar
    55    19    18   ar
    56    13    14   ar
    57    26    11    1
    58    11    10   ar
    59    25    21    1
    60    21    16   ar
    61    18    23    1
    62    18    17   ar
    63    14    28    1
    64    14    15   ar
    65    16    17   ar
    66    16     1    1
    67    10    15   ar
    68    10     1    1
    69    17    22    1
    70    15    29    1
    71     1     2    1
    72     1     6    1
    73     5     2    1
    74     8     6    1
    75     2     3    1
    76     2     4    1
    77     6     9    1
    78     6     7    1
