@<TRIPOS>MOLECULE
*****
 118 121 0 0 0
SMALL
GASTEIGER

@<TRIPOS>ATOM
      1 C          17.2500   25.8300   26.9800 C.3     1  VEB        0.0151
      2 C1         17.0300   27.3700   27.0700 C.3     1  VEB       -0.0517
      3 H          17.8600   27.8700   27.5800 H       1  VEB        0.0241
      4 H1         16.1100   27.5900   27.6300 H       1  VEB        0.0241
      5 H2         16.9200   27.8100   26.0700 H       1  VEB        0.0241
      6 C2         17.6100   25.3500   28.4100 C.3     1  VEB       -0.0517
      7 H3         18.5700   25.7800   28.7300 H       1  VEB        0.0241
      8 H4         17.7000   24.2600   28.4600 H       1  VEB        0.0241
      9 H5         16.8500   25.6700   29.1400 H       1  VEB        0.0241
     10 C3         18.4500   25.4500   26.0900 C.ar    1  VEB       -0.0372
     11 C4         19.4500   26.3800   25.7200 C.ar    1  VEB       -0.0543
     12 C5         20.6200   25.9800   25.0700 C.ar    1  VEB       -0.0197
     13 C6         20.8400   24.6200   24.7800 C.ar    1  VEB        0.1206
     14 C7         19.8400   23.6900   25.0900 C.ar    1  VEB       -0.0197
     15 C8         18.6600   24.0900   25.7400 C.ar    1  VEB       -0.0543
     16 C9         15.9200   25.2300   26.4600 C.ar    1  VEB       -0.0372
     17 C10        15.4800   25.5500   25.1600 C.ar    1  VEB       -0.0543
     18 C11        14.1800   25.2100   24.7300 C.ar    1  VEB       -0.0197
     19 C12        13.3000   24.5500   25.6000 C.ar    1  VEB        0.1206
     20 C13        13.7600   24.1500   26.8600 C.ar    1  VEB       -0.0197
     21 C14        15.0500   24.4900   27.2900 C.ar    1  VEB       -0.0543
     22 H6         16.1300   26.1100   24.4900 H       1  VEB        0.0622
     23 H7         13.8300   25.5100   23.7400 H       1  VEB        0.0654
     24 H8         13.1000   23.6000   27.5300 H       1  VEB        0.0654
     25 H9         15.3400   24.2000   28.3000 H       1  VEB        0.0622
     26 H10        19.3400   27.4300   25.9700 H       1  VEB        0.0622
     27 H11        21.3700   26.7200   24.8200 H       1  VEB        0.0654
     28 H12        20.0000   22.6400   24.8500 H       1  VEB        0.0654
     29 H13        17.9200   23.3500   26.0100 H       1  VEB        0.0622
     30 O          22.0300   24.1800   24.2300 O.3     1  VEB       -0.4893
     31 O1         11.9900   24.3500   25.2300 O.3     1  VEB       -0.4893
     32 C15        23.2700   24.8800   24.4700 C.3     1  VEB        0.1186
     33 C16        24.4700   24.0100   24.0200 C.3     1  VEB        0.1229
     34 H14        23.3700   25.1000   25.5400 H       1  VEB        0.0724
     35 H15        23.2800   25.8300   23.9200 H       1  VEB        0.0724
     36 C17        25.8100   24.7100   24.3600 C.3     1  VEB        0.1186
     37 O2         24.3800   22.7600   24.6900 O.3     1  VEB       -0.3850
     38 H16        24.4100   23.8700   22.9300 H       1  VEB        0.0661
     39 H17        23.4500   22.4600   24.5900 H       1  VEB        0.2101
     40 C18        10.9700   24.8900   26.1000 C.3     1  VEB        0.1186
     41 C19         9.5500   24.5700   25.5500 C.3     1  VEB        0.1230
     42 H18        11.0900   25.9800   26.1600 H       1  VEB        0.0724
     43 H19        11.0500   24.4800   27.1100 H       1  VEB        0.0724
     44 C20         8.5100   25.4900   26.2300 C.3     1  VEB        0.1215
     45 O3          9.2000   23.2200   25.8400 O.3     1  VEB       -0.3850
     46 H20         9.5300   24.7500   24.4700 H       1  VEB        0.0662
     47 H21         8.2400   23.1500   25.6400 H       1  VEB        0.2101
     48 O4          7.1800   25.1100   25.8100 O.3     1  VEB       -0.4617
     49 H22         8.7100   26.5400   25.9600 H       1  VEB        0.0725
     50 H23         8.6000   25.4000   27.3200 H       1  VEB        0.0725
     51 C21         6.1300   25.8100   26.3400 C.2     1  VEB        0.3097
     52 C22         4.7700   25.2900   25.8500 C.3     1  VEB        0.0508
     53 C23         4.0000   24.6300   27.0200 C.3     1  VEB       -0.0525
     54 H24         4.5800   23.8100   27.4600 H       1  VEB        0.0237
     55 H25         3.0400   24.2200   26.6700 H       1  VEB        0.0237
     56 H26         3.7800   25.3600   27.8100 H       1  VEB        0.0237
     57 O5          6.2600   26.7400   27.1200 O.2     1  VEB       -0.2506
     58 C24         3.9400   26.4200   25.2000 C.3     1  VEB       -0.0525
     59 H27         4.9700   24.5300   25.0900 H       1  VEB        0.0408
     60 H28         4.4900   26.8700   24.3700 H       1  VEB        0.0237
     61 H29         3.7200   27.2200   25.9300 H       1  VEB        0.0237
     62 H30         2.9900   26.0400   24.8200 H       1  VEB        0.0237
     63 H31        32.9100   22.7000   27.4300 H       1  VEB        0.0241
     64 H32        31.1700   22.6200   27.1400 H       1  VEB        0.0241
     65 C25        32.1400   22.7800   26.6500 C.3     1  VEB       -0.0517
     66 H33        31.4200   25.2100   27.7400 H       1  VEB        0.0241
     67 H34        32.3000   21.9600   25.9400 H       1  VEB        0.0241
     68 H35        33.1800   25.0800   27.6800 H       1  VEB        0.0241
     69 C26        32.2900   25.2400   27.0700 C.3     1  VEB       -0.0517
     70 H36        34.7600   23.5500   26.6200 H       1  VEB        0.0622
     71 C27        32.1700   24.1700   25.9400 C.3     1  VEB        0.0151
     72 C28        34.6900   23.9400   25.6100 C.ar    1  VEB       -0.0543
     73 H37        30.1900   26.2100   26.0000 H       1  VEB        0.0622
     74 H38        32.3600   26.2500   26.6400 H       1  VEB        0.0241
     75 C29        30.8300   24.3000   25.1600 C.ar    1  VEB       -0.0372
     76 C30        29.9300   25.3700   25.3700 C.ar    1  VEB       -0.0543
     77 C31        33.4300   24.2900   25.0600 C.ar    1  VEB       -0.0372
     78 H39        36.8100   23.7800   25.3100 H       1  VEB        0.0654
     79 C32        35.8700   24.0900   24.8700 C.ar    1  VEB       -0.0197
     80 C33        30.4200   23.2600   24.2900 C.ar    1  VEB       -0.0543
     81 C34        28.6300   25.3400   24.8300 C.ar    1  VEB       -0.0197
     82 H40        31.1000   22.4400   24.0800 H       1  VEB        0.0622
     83 H41        27.9500   26.1600   25.0500 H       1  VEB        0.0654
     84 C35        29.1200   23.2300   23.7500 C.ar    1  VEB       -0.0197
     85 C36        28.2100   24.2500   24.0500 C.ar    1  VEB        0.1206
     86 C37        33.4000   24.8100   23.7500 C.ar    1  VEB       -0.0543
     87 H42        38.0800   26.3100   23.7200 H       1  VEB        0.0724
     88 C38        35.8300   24.6200   23.5700 C.ar    1  VEB        0.1206
     89 H43        28.8000   22.4000   23.1400 H       1  VEB        0.0654
     90 O6         26.9000   24.1100   23.6200 O.3     1  VEB       -0.4893
     91 H44        32.4600   25.1000   23.3000 H       1  VEB        0.0622
     92 H45        38.4300   24.6900   24.3500 H       1  VEB        0.0724
     93 C39        38.2000   25.2500   23.4400 C.3     1  VEB        0.1186
     94 C40        34.5900   24.9600   23.0100 C.ar    1  VEB       -0.0197
     95 O7         36.9800   24.7800   22.8300 O.3     1  VEB       -0.4893
     96 O8         39.7700   23.7200   22.3700 O.3     1  VEB       -0.3850
     97 H46        40.7800   25.6400   24.0700 H       1  VEB        0.0725
     98 C41        39.4000   25.1000   22.4800 C.3     1  VEB        0.1230
     99 H47        34.5500   25.3600   22.0000 H       1  VEB        0.0654
    100 H48        40.6600   23.7300   21.9600 H       1  VEB        0.2101
    101 C42        40.6300   25.8700   23.0100 C.3     1  VEB        0.1215
    102 H49        39.1300   25.5000   21.4900 H       1  VEB        0.0662
    103 H50        40.4500   26.9500   22.9200 H       1  VEB        0.0725
    104 O9         41.8100   25.4900   22.2600 O.3     1  VEB       -0.4617
    105 H51        44.9700   24.2600   23.4500 H       1  VEB        0.0237
    106 O10        43.1200   26.8600   23.5200 O.2     1  VEB       -0.2506
    107 C43        43.0000   26.0400   22.6300 C.2     1  VEB        0.3097
    108 C44        45.3300   25.0100   22.7300 C.3     1  VEB       -0.0525
    109 H52        45.7400   25.8500   23.3000 H       1  VEB        0.0237
    110 C45        44.1700   25.4800   21.8100 C.3     1  VEB        0.0508
    111 H53        43.8000   24.6100   21.2600 H       1  VEB        0.0408
    112 H54        46.1400   24.5600   22.1400 H       1  VEB        0.0237
    113 C46        44.6700   26.5300   20.7800 C.3     1  VEB       -0.0525
    114 H55        45.0500   27.4200   21.2900 H       1  VEB        0.0237
    115 H56        43.8600   26.8300   20.1100 H       1  VEB        0.0237
    116 H57        45.4900   26.1200   20.1700 H       1  VEB        0.0237
    117 H58        25.9800   24.6100   25.4400 H       1  VEB        0.0724
    118 H59        25.7500   25.7800   24.1200 H       1  VEB        0.0724
@<TRIPOS>BOND
     1   115   113    1
     2   116   113    1
     3   113   114    1
     4   113   110    1
     5   111   110    1
     6   102    98    1
     7   110   107    1
     8   110   108    1
     9   100    96    1
    10    99    94    1
    11   112   108    1
    12   104   107    1
    13   104   101    1
    14    96    98    1
    15    98   101    1
    16    98    93    1
    17   107   106    2
    18   108   109    1
    19   108   105    1
    20    95    93    1
    21    95    88    1
    22   103   101    1
    23    38    33    1
    24    94    88   ar
    25    94    86   ar
    26   101    97    1
    27    89    84    1
    28    91    86    1
    29    93    87    1
    30    93    92    1
    31    88    79   ar
    32    90    85    1
    33    90    36    1
    34    23    18    1
    35    84    85   ar
    36    84    80   ar
    37    86    77   ar
    38    35    32    1
    39    33    36    1
    40    33    32    1
    41    33    37    1
    42    85    81   ar
    43    82    80    1
    44   118    36    1
    45    30    32    1
    46    30    13    1
    47    80    75   ar
    48    36   117    1
    49    60    58    1
    50    46    41    1
    51    32    34    1
    52    22    17    1
    53    39    37    1
    54    18    17   ar
    55    18    19   ar
    56    13    12   ar
    57    13    14   ar
    58    27    12    1
    59    62    58    1
    60    81    83    1
    61    81    76   ar
    62    28    14    1
    63    79    78    1
    64    79    72   ar
    65    77    72   ar
    66    77    71    1
    67    12    11   ar
    68    14    15   ar
    69    59    52    1
    70    75    76   ar
    71    75    71    1
    72    17    16   ar
    73    58    52    1
    74    58    61    1
    75    31    19    1
    76    31    40    1
    77    76    73    1
    78    41    45    1
    79    41    40    1
    80    41    44    1
    81    19    20   ar
    82    72    70    1
    83    47    45    1
    84    11    26    1
    85    11    10   ar
    86    15    29    1
    87    15    10   ar
    88    48    44    1
    89    48    51    1
    90    52    51    1
    91    52    53    1
    92    71    65    1
    93    71    69    1
    94    67    65    1
    95    49    44    1
    96     5     2    1
    97    10     1    1
    98    40    42    1
    99    40    43    1
   100    44    50    1
   101    51    57    2
   102    16     1    1
   103    16    21   ar
   104    74    69    1
   105    65    64    1
   106    65    63    1
   107    55    53    1
   108    20    21   ar
   109    20    24    1
   110     1     2    1
   111     1     6    1
   112    53    54    1
   113    53    56    1
   114    69    68    1
   115    69    66    1
   116     2     3    1
   117     2     4    1
   118    21    25    1
   119     6     8    1
   120     6     7    1
   121     6     9    1
