@<TRIPOS>MOLECULE
****
53 54 1 0 0
SMALL
USER_CHARGES


@<TRIPOS>ATOM
      1 O          -3.7042    0.1502   -2.4609 O.3       1     ****    0.0000
      2 O           4.0231    1.5242    2.1351 O.3       1     ****    0.0000
      3 C           3.1758    0.5685    1.6281 C.ar      1     ****    0.0000
      4 C           3.6734   -0.3584    0.7876 C.ar      1     ****    0.0000
      5 C           2.9206   -1.3269    0.2441 C.ar      1     ****    0.0000
      6 C           1.6063   -1.4202    0.5108 C.ar      1     ****    0.0000
      7 C           1.1008   -0.5056    1.3582 C.ar      1     ****    0.0000
      8 C           1.8602    0.4609    1.8976 C.ar      1     ****    0.0000
      9 C           0.7001   -2.5068   -0.0736 C.3       1     ****    0.0000
     10 C           1.3434   -3.3416   -1.2043 C.3       1     ****    0.0000
     11 C           0.3826   -3.4821    1.0829 C.3       1     ****    0.0000
     12 C          -0.5245   -1.8200   -0.6835 C.ar      1     ****    0.0000
     13 C          -0.3634   -0.8093   -1.5563 C.ar      1     ****    0.0000
     14 C          -1.4144   -0.1899   -2.1132 C.ar      1     ****    0.0000
     15 C          -2.6868   -0.5375   -1.8440 C.ar      1     ****    0.0000
     16 C          -2.8387   -1.5595   -0.9790 C.ar      1     ****    0.0000
     17 C          -1.7911   -2.1841   -0.4168 C.ar      1     ****    0.0000
     18 C          -5.0421   -0.2215   -2.2002 C.3       1     ****    0.0000
     19 C           3.5088    2.4995    3.0184 C.3       1     ****    0.0000
     20 C           4.6042    3.4612    3.4265 C.2       1     ****    0.0000
     21 C           5.0045    3.5829    4.7020 C.2       1     ****    0.0000
     22 C           5.2241    4.2760    2.3177 C.3       1     ****    0.0000
     23 C          -5.9888    0.6447   -3.0032 C.2       1     ****    0.0000
     24 C          -6.8783    1.4600   -2.4150 C.2       1     ****    0.0000
     25 C          -5.8759    0.5429   -4.5047 C.3       1     ****    0.0000
     26 H           4.7477   -0.3192    0.5364 H         1     ****    0.0000
     27 H           3.4170   -2.0425   -0.4286 H         1     ****    0.0000
     28 H           0.0304   -0.5390    1.6229 H         1     ****    0.0000
     29 H           1.3589    1.1687    2.5766 H         1     ****    0.0000
     30 H           0.6088   -4.0659   -1.6254 H         1     ****    0.0000
     31 H           1.6961   -2.7121   -2.0520 H         1     ****    0.0000
     32 H           2.2062   -3.9451   -0.8431 H         1     ****    0.0000
     33 H          -0.2129   -4.3589    0.7426 H         1     ****    0.0000
     34 H          -0.1725   -2.9924    1.9144 H         1     ****    0.0000
     35 H           1.3216   -3.8923    1.5207 H         1     ****    0.0000
     36 H           0.6502   -0.4702   -1.8277 H         1     ****    0.0000
     37 H          -1.2288    0.6368   -2.8206 H         1     ****    0.0000
     38 H          -3.8416   -1.9217   -0.7022 H         1     ****    0.0000
     39 H          -2.0045   -3.0123    0.2761 H         1     ****    0.0000
     40 H          -5.2017   -1.2811   -2.5055 H         1     ****    0.0000
     41 H          -5.2432   -0.1070   -1.1108 H         1     ****    0.0000
     42 H           2.7108    3.0842    2.5057 H         1     ****    0.0000
     43 H           3.0877    1.9894    3.9144 H         1     ****    0.0000
     44 H           5.8023    4.2841    4.9884 H         1     ****    0.0000
     45 H           4.5506    2.9858    5.5068 H         1     ****    0.0000
     46 H           5.7045    3.6084    1.5676 H         1     ****    0.0000
     47 H           4.4433    4.8800    1.8027 H         1     ****    0.0000
     48 H           6.0031    4.9787    2.6887 H         1     ****    0.0000
     49 H          -7.5614    2.0865   -3.0075 H         1     ****    0.0000
     50 H          -6.9563    1.5323   -1.3200 H         1     ****    0.0000
     51 H          -4.8610    0.8550   -4.8394 H         1     ****    0.0000
     52 H          -6.0473   -0.5073   -4.8322 H         1     ****    0.0000
     53 H          -6.6153    1.1853   -5.0328 H         1     ****    0.0000
@<TRIPOS>BOND
     1     1    15     1
     2     1    18     1
     3     2     3     1
     4     2    19     1
     5     3     4     1
     6     3     8     2
     7     4     5     2
     8     4    26     1
     9     5     6     1
    10     5    27     1
    11     6     7     2
    12     6     9     1
    13     7     8     1
    14     7    28     1
    15     8    29     1
    16     9    10     1
    17     9    11     1
    18     9    12     1
    19    10    30     1
    20    10    31     1
    21    10    32     1
    22    11    33     1
    23    11    34     1
    24    11    35     1
    25    12    13     1
    26    12    17     2
    27    13    14     2
    28    13    36     1
    29    14    15     1
    30    14    37     1
    31    15    16     2
    32    16    17     1
    33    16    38     1
    34    17    39     1
    35    18    23     1
    36    18    40     1
    37    18    41     1
    38    19    20     1
    39    19    42     1
    40    19    43     1
    41    20    21     2
    42    20    22     1
    43    21    44     1
    44    21    45     1
    45    22    46     1
    46    22    47     1
    47    22    48     1
    48    23    24     2
    49    23    25     1
    50    24    49     1
    51    24    50     1
    52    25    51     1
    53    25    52     1
    54    25    53     1
