@<TRIPOS>MOLECULE
GMA
 71 72 0 0 0
SMALL
GASTEIGER

@<TRIPOS>ATOM
      1 C3          6.2771    4.3233    5.3759 C.3     1  GMA        -0.0525
      2 C1          7.3073    3.2426    5.0501 C.3     1  GMA         0.0508
      3 C           7.6852    2.4766    6.3150 C.3     1  GMA        -0.0525
      4 C           6.7570    2.2984    3.9948 C.2     1  GMA         0.3097
      5 O           5.6222    2.3395    3.5408 O.2     1  GMA        -0.2506
      6 O           7.7045    1.3926    3.6209 O.3     1  GMA        -0.4617
      7 C           7.2902    0.4411    2.6256 C.3     1  GMA         0.1215
      8 C5          6.3998   -0.6661    3.2045 C.3     1  GMA         0.1230
      9 O           6.0345   -1.5927    2.1761 O.3     1  GMA        -0.3850
     10 C           7.0584   -1.4108    4.3719 C.3     1  GMA         0.1186
     11 O           8.2648   -2.0599    3.9394 O.3     1  GMA        -0.4893
     12 C           8.9647   -2.7077    4.9286 C.ar    1  GMA         0.1206
     13 C           8.5353   -2.8539    6.2505 C.ar    1  GMA        -0.0197
     14 C           9.3195   -3.5343    7.1822 C.ar    1  GMA        -0.0548
     15 C          10.5544   -4.0799    6.8175 C.ar    1  GMA        -0.0428
     16 C          11.3705   -4.8387    7.8429 C.3     1  GMA        -0.0023
     17 C          10.9506   -6.2852    7.9951 C.ar    1  GMA        -0.0396
     18 C          11.1492   -7.1963    6.9426 C.ar    1  GMA        -0.0164
     19 C          10.7020   -8.5153    7.0432 C.ar    1  GMA         0.1209
     20 O          10.8225   -9.4807    6.0818 O.3     1  GMA        -0.4893
     21 C          11.5006   -9.1149    4.8790 C.3     1  GMA         0.1186
     22 C6         11.5257  -10.3197    3.9274 C.3     1  GMA         0.1230
     23 O          10.1924  -10.7253    3.5732 O.3     1  GMA        -0.3850
     24 C          12.2944   -9.9599    2.6489 C.3     1  GMA         0.1215
     25 O          12.3709  -11.0825    1.7541 O.3     1  GMA        -0.4617
     26 C          13.3341  -11.9968    2.0558 C.2     1  GMA         0.3097
     27 O          14.1170  -11.8925    2.9904 O.2     1  GMA        -0.2506
     28 C2         13.2763  -13.1637    1.0857 C.3     1  GMA         0.0508
     29 C          13.5242  -12.6858   -0.3418 C.3     1  GMA        -0.0525
     30 C4         14.2976  -14.2297    1.4761 C.3     1  GMA        -0.0525
     31 C          10.0601   -8.9312    8.2099 C.ar    1  GMA        -0.0199
     32 C           9.8909   -8.0508    9.2779 C.ar    1  GMA        -0.0580
     33 C          10.3378   -6.7336    9.1733 C.ar    1  GMA        -0.0580
     34 C          10.9842   -3.9369    5.4900 C.ar    1  GMA        -0.0548
     35 C          10.1922   -3.2596    4.5518 C.ar    1  GMA        -0.0197
     36 H           6.6652    5.0270    6.1190 H       1  GMA         0.0237
     37 H           5.3534    3.8852    5.7716 H       1  GMA         0.0237
     38 H           6.0129    4.8917    4.4774 H       1  GMA         0.0237
     39 H           8.1956    3.7303    4.6304 H       1  GMA         0.0408
     40 H           6.8278    1.9243    6.7156 H       1  GMA         0.0237
     41 H           8.0458    3.1591    7.0922 H       1  GMA         0.0237
     42 H           8.4797    1.7495    6.1161 H       1  GMA         0.0237
     43 H           8.1945    0.0032    2.1882 H       1  GMA         0.0725
     44 H           6.7825    0.9493    1.7953 H       1  GMA         0.0725
     45 H           5.4672   -0.2280    3.5840 H       1  GMA         0.0662
     46 H           6.7927   -2.1937    2.0567 H       1  GMA         0.2101
     47 H           6.3572   -2.1757    4.7270 H       1  GMA         0.0724
     48 H           7.2832   -0.6983    5.1743 H       1  GMA         0.0724
     49 H           7.5882   -2.4561    6.5948 H       1  GMA         0.0654
     50 H           8.9514   -3.6395    8.2004 H       1  GMA         0.0622
     51 H          11.2814   -4.3204    8.8078 H       1  GMA         0.0361
     52 H          12.4374   -4.7918    7.5921 H       1  GMA         0.0361
     53 H          11.6444   -6.8411    6.0458 H       1  GMA         0.0657
     54 H          12.5298   -8.8153    5.1117 H       1  GMA         0.0724
     55 H          10.9635   -8.2881    4.3979 H       1  GMA         0.0724
     56 H          11.9744  -11.1832    4.4293 H       1  GMA         0.0662
     57 H           9.6704   -9.9307    3.3732 H       1  GMA         0.2101
     58 H          13.2986   -9.5776    2.8687 H       1  GMA         0.0725
     59 H          11.7608   -9.1744    2.1021 H       1  GMA         0.0725
     60 H          12.2755  -13.6067    1.1601 H       1  GMA         0.0408
     61 H          14.4873  -12.1703   -0.4250 H       1  GMA         0.0237
     62 H          12.7477  -11.9836   -0.6645 H       1  GMA         0.0237
     63 H          13.5224  -13.5268   -1.0430 H       1  GMA         0.0237
     64 H          15.3174  -13.8287    1.4587 H       1  GMA         0.0237
     65 H          14.2550  -15.0836    0.7925 H       1  GMA         0.0237
     66 H          14.1055  -14.5989    2.4896 H       1  GMA         0.0237
     67 H           9.6914   -9.9514    8.2861 H       1  GMA         0.0654
     68 H           9.4032   -8.3928   10.1870 H       1  GMA         0.0619
     69 H          10.1947   -6.0601   10.0151 H       1  GMA         0.0620
     70 H          11.9365   -4.3564    5.1737 H       1  GMA         0.0622
     71 H          10.5387   -3.1638    3.5262 H       1  GMA         0.0654
@<TRIPOS>BOND
     1     1     2    1
     2     2     3    1
     3     2     4    1
     4     4     5    2
     5     4     6    1
     6     6     7    1
     7     7     8    1
     8     8     9    1
     9     8    10    1
    10    10    11    1
    11    11    12    1
    12    12    13   ar
    13    13    14   ar
    14    14    15   ar
    15    15    16    1
    16    16    17    1
    17    17    18   ar
    18    18    19   ar
    19    19    20    1
    20    20    21    1
    21    21    22    1
    22    22    23    1
    23    22    24    1
    24    24    25    1
    25    25    26    1
    26    26    27    2
    27    26    28    1
    28    28    29    1
    29    28    30    1
    30    19    31   ar
    31    31    32   ar
    32    32    33   ar
    33    17    33   ar
    34    15    34   ar
    35    34    35   ar
    36    12    35   ar
    37     1    36    1
    38     1    37    1
    39     1    38    1
    40     2    39    1
    41     3    40    1
    42     3    41    1
    43     3    42    1
    44     7    43    1
    45     7    44    1
    46     8    45    1
    47     9    46    1
    48    10    47    1
    49    10    48    1
    50    13    49    1
    51    14    50    1
    52    16    51    1
    53    16    52    1
    54    18    53    1
    55    21    54    1
    56    21    55    1
    57    22    56    1
    58    23    57    1
    59    24    58    1
    60    24    59    1
    61    28    60    1
    62    29    61    1
    63    29    62    1
    64    29    63    1
    65    30    64    1
    66    30    65    1
    67    30    66    1
    68    31    67    1
    69    32    68    1
    70    33    69    1
    71    34    70    1
    72    35    71    1
