@<TRIPOS>MOLECULE
DFA
    29    30  1  0  0
SMALL
gas

@<TRIPOS>ATOM
      1 N1         -5.7936   -0.8679    0.1206 n3      1  DFA       -0.3248
      2 C          -4.9406    0.3161    0.1076 c3      1  DFA        0.0403
      3 C1         -3.4826   -0.0449    0.0616 cc      1  DFA        0.0725
      4 H          -5.1236    0.9071    1.0306 h1      1  DFA        0.0498
      5 H1         -5.1876    0.9471   -0.7744 h1      1  DFA        0.0498
      6 O          -2.5236    0.8501    0.0456 os      1  DFA       -0.3174
      7 C2         -2.9326   -1.3089    0.0316 cd      1  DFA       -0.0319
      8 C3         -1.3556    0.2441    0.0086 cc      1  DFA        0.0654
      9 C4         -1.5686   -1.1289   -0.0024 cd      1  DFA       -0.0327
     10 C5         -0.0846    1.0651   -0.0144 c3      1  DFA        0.0418
     11 C6          1.3004    0.4551   -0.0324 cc      1  DFA        0.0654
     12 H2         -0.1206    1.7191    0.8816 hc      1  DFA        0.0409
     13 H3         -0.1526    1.7151   -0.9114 hc      1  DFA        0.0409
     14 C7          1.7274   -0.8679   -0.0204 cd      1  DFA       -0.0327
     15 C8          3.1024   -0.8299   -0.0424 cd      1  DFA       -0.0319
     16 O1          2.3584    1.2381   -0.0584 os      1  DFA       -0.3174
     17 C9          3.4474    0.5051   -0.0644 cc      1  DFA        0.0725
     18 C10         4.8294    1.0931   -0.0934 c3      1  DFA        0.0403
     19 N2          5.8594    0.0581   -0.0914 n3      1  DFA       -0.3248
     20 H4          4.9624    1.7531    0.7916 h1      1  DFA        0.0498
     21 H5          4.9304    1.7061   -1.0134 h1      1  DFA        0.0498
     22 H6         -6.7886   -0.5579    0.1996 hn      1  DFA        0.1188
     23 H7         -5.6926   -1.3719   -0.7904 hn      1  DFA        0.1188
     24 H8          5.8254   -0.4569    0.8186 hn      1  DFA        0.1188
     25 H9          6.7944    0.5221   -0.1544 hn      1  DFA        0.1188
     26 H10        -3.4546   -2.2569    0.0356 ha      1  DFA        0.0648
     27 H11        -0.8716   -1.9409   -0.0334 ha      1  DFA        0.0648
     28 H12         1.1674   -1.7789    0.0036 ha      1  DFA        0.0648
     29 H13         3.7684   -1.6829   -0.0404 ha      1  DFA        0.0648
@<TRIPOS>BOND
     1     1     2    1
     2     2     3    1
     3     2     4    1
     4     2     5    1
     5     3     6    1
     6     3     7    2
     7     6     8    1
     8     8     9    2
     9     7     9    1
    10     8    10    1
    11    10    11    1
    12    10    12    1
    13    10    13    1
    14    11    14    2
    15    14    15    1
    16    11    16    1
    17    16    17    1
    18    15    17    2
    19    17    18    1
    20    18    19    1
    21    18    20    1
    22    18    21    1
    23     1    22    1
    24     1    23    1
    25    19    24    1
    26    19    25    1
    27     7    26    1
    28     9    27    1
    29    14    28    1
    30    15    29    1
@<TRIPOS>SUBSTRUCTURE
     1 DFA          1 RESIDUE