@<TRIPOS>MOLECULE
DFAFDE2-7
    93    96  3  0  0
SMALL
gas

@<TRIPOS>ATOM
      1 N1         -9.9520   -0.1392    0.5332 n3      1  DFA       -0.3248
      2 C          -9.2820    1.1508    0.7332 c3      1  DFA        0.0403
      3 C1         -7.8320    1.1408    0.2932 cc      1  DFA        0.0725
      4 H          -9.3220    1.4208    1.7932 h1      1  DFA        0.0498
      5 H1         -9.8120    1.9308    0.1732 h1      1  DFA        0.0498
      6 O          -6.9920    2.1408    0.7232 os      1  DFA       -0.3174
      7 C2         -7.2720    0.2508   -0.5868 cd      1  DFA       -0.0319
      8 C3         -5.8420    1.8108    0.0532 cc      1  DFA        0.0654
      9 C4         -5.9320    0.7008   -0.7468 cd      1  DFA       -0.0327
     10 C5         -4.6420    2.7208    0.1232 c3      1  DFA        0.0418
     11 C6         -3.3220    2.0208    0.2432 cc      1  DFA        0.0654
     12 H2         -4.7620    3.4008    0.9832 hc      1  DFA        0.0409
     13 H3         -4.6320    3.3608   -0.7668 hc      1  DFA        0.0409
     14 C7         -3.0620    0.9608    1.0832 cd      1  DFA       -0.0327
     15 C8         -1.6620    0.7408    0.9632 cd      1  DFA       -0.0319
     16 O1         -2.2220    2.5208   -0.4068 os      1  DFA       -0.3174
     17 C9         -1.2320    1.6908    0.0732 cc      1  DFA        0.0730
     18 C10         0.2080    1.9708   -0.2968 c3      1  DFA        0.0457
     19 N2          1.1380    0.8908    0.0732 n3      1  DFA       -0.2918
     20 H4          0.5080    2.9008    0.2032 h1      1  DFA        0.0503
     21 H5          0.2580    2.1408   -1.3768 h1      1  DFA        0.0503
     22 H6        -10.9220   -0.0692    0.8332 hn      1  DFA        0.1188
     23 H7         -9.9720   -0.3692   -0.4568 hn      1  DFA        0.1188
     24 H10        -7.7420   -0.5892   -1.0768 ha      1  DFA        0.0648
     25 H11        -5.1720    0.2808   -1.3968 ha      1  DFA        0.0648
     26 H12        -3.7620    0.4308    1.7232 ha      1  DFA        0.0648
     27 H13        -1.0720    0.0008    1.4932 ha      1  DFA        0.0648
     28 O           7.9980    2.4608   -3.2768 os      2  FDE       -0.3212
     29 C           7.6580    3.4008   -4.2168 cc      2  FDE        0.0455
     30 C5          6.3480    3.8008   -4.1568 cd      2  FDE       -0.0364
     31 C6          6.8080    2.2908   -2.6268 cc      2  FDE        0.0725
     32 C7          5.7780    3.0708   -3.0968 cd      2  FDE       -0.0322
     33 C8          6.7080    1.3708   -1.4368 c3      2  FDE        0.0457
     34 N           5.3980    0.6708   -1.3268 n3      2  FDE       -0.2919
     35 H           6.8780    1.9908   -0.5568 h1      2  FDE        0.0503
     36 H1          7.5280    0.6408   -1.4568 h1      2  FDE        0.0503
     37 C9          4.9980    0.5108    0.0932 c3      2  FDE        0.0261
     38 C10         5.2880   -0.5992   -2.1068 c3      2  FDE        0.0245
     39 C3          5.6680   -0.5192   -3.6068 c3      2  FDE        0.0639
     40 H2          4.2480   -0.9492   -2.0568 h1      2  FDE        0.0458
     41 H3          5.9080   -1.3792   -1.6368 h1      2  FDE        0.0458
     42 C1          4.9880   -1.6492   -4.4068 c3      2  FDE       -0.0377
     43 H4          5.2880   -2.6392   -4.0368 hc      2  FDE        0.0257
     44 H5          5.2580   -1.5892   -5.4668 hc      2  FDE        0.0257
     45 H6          3.8980   -1.5792   -4.3368 hc      2  FDE        0.0257
     46 O1          7.0780   -0.6592   -3.7668 oh      2  FDE       -0.3921
     47 H7          5.3180    0.4408   -4.0068 h1      2  FDE        0.0611
     48 C4          3.5080    0.1208    0.3132 c3      2  FDE        0.0794
     49 H8          5.1680    1.4508    0.6232 h1      2  FDE        0.0458
     50 H9          5.6280   -0.2492    0.5632 h1      2  FDE        0.0458
     51 O2          3.2980   -0.0592    1.7232 oh      2  FDE       -0.3905
     52 C2          2.5380    1.2108   -0.2168 c3      2  FDE        0.0261
     53 H10         3.2880   -0.8292   -0.1868 h1      2  FDE        0.0628
     54 H11         2.8080    2.1708    0.2332 h1      2  FDE        0.0458
     55 H12         2.6780    1.3008   -1.3068 h1      2  FDE        0.0458
     56 H14         3.4580    0.8008    2.1532 ho      2  FDE        0.2106
     57 H15         7.3080   -0.3292   -4.6568 ho      2  FDE        0.2105
     58 H16         8.4580    3.7208   -4.8768 h4      2  FDE        0.0902
     59 H17         5.8580    4.5408   -4.7868 ha      2  FDE        0.0645
     60 H18         4.7580    3.1208   -2.7268 ha      2  FDE        0.0648
     61 O          -3.3620   -3.2762   -0.3288 os      3  FDE       -0.3212
     62 C          -4.3060   -2.3742   -0.7618 cc      3  FDE        0.0455
     63 C5         -3.9710   -1.0612   -0.5198 cd      3  FDE       -0.0364
     64 C6         -2.4070   -2.4402    0.1972 cc      3  FDE        0.0725
     65 C7         -2.7070   -1.1032    0.1012 cd      3  FDE       -0.0322
     66 C8         -1.1200   -2.9972    0.7502 c3      3  FDE        0.0457
     67 N          -0.5260   -2.1602    1.8252 n3      3  FDE       -0.2919
     68 H          -0.4240   -3.0792   -0.0998 h1      3  FDE        0.0503
     69 H1         -1.2870   -4.0232    1.1132 h1      3  FDE        0.0503
     70 C9          0.9420   -2.0382    1.7002 c3      3  FDE        0.0261
     71 C10        -0.9800   -2.4882    3.2042 c3      3  FDE        0.0245
     72 C3         -2.5170   -2.4552    3.4302 c3      3  FDE        0.0639
     73 H2         -0.5540   -1.7542    3.8992 h1      3  FDE        0.0458
     74 H3         -0.6000   -3.4742    3.4972 h1      3  FDE        0.0458
     75 C1         -2.8560   -2.2082    4.9222 c3      3  FDE       -0.0377
     76 H4         -2.4350   -2.9982    5.5592 hc      3  FDE        0.0257
     77 H5         -3.9420   -2.1892    5.0642 hc      3  FDE        0.0257
     78 H6         -2.4530   -1.2402    5.2442 hc      3  FDE        0.0257
     79 O1         -3.1000   -3.7072    3.0512 oh      3  FDE       -0.3921
     80 H7         -2.9460   -1.6392    2.8462 h1      3  FDE        0.0611
     81 C4          1.5700   -0.8812    2.5082 c3      3  FDE        0.0794
     82 H8          1.1970   -1.8642    0.6362 h1      3  FDE        0.0458
     83 H9          1.4190   -2.9832    1.9972 h1      3  FDE        0.0458
     84 O2          2.9710   -0.8392    2.2682 oh      3  FDE       -0.3905
     85 C2          0.9510    0.4958    2.1482 c3      3  FDE        0.0261
     86 H10         1.4110   -1.0552    3.5822 h1      3  FDE        0.0628
     87 H12         1.4520    1.2968    2.7002 h1      3  FDE        0.0458
     88 H11        -0.1150    0.5218    2.4062 h1      3  FDE        0.0458
     89 H14         3.0960   -0.6342    1.3162 ho      3  FDE        0.2106
     90 H15        -4.0600   -3.5732    2.9672 ho      3  FDE        0.2105
     91 H16        -5.1840   -2.7972   -1.2298 h4      3  FDE        0.0902
     92 H17        -4.5410   -0.1842   -0.7758 ha      3  FDE        0.0645
     93 H18        -2.1040   -0.2652    0.4322 ha      3  FDE        0.0648
@<TRIPOS>BOND
     1     1     2    1
     2     2     3    1
     3     2     4    1
     4     2     5    1
     5     3     6    1
     6     3     7    2
     7     6     8    1
     8     8     9    2
     9     7     9    1
    10     8    10    1
    11    10    11    1
    12    10    12    1
    13    10    13    1
    14    11    14    2
    15    14    15    1
    16    11    16    1
    17    16    17    1
    18    15    17    2
    19    17    18    1
    20    18    19    1
    21    18    20    1
    22    18    21    1
    23     1    22    1
    24     1    23    1
    25     7    24    1
    26     9    25    1
    27    14    26    1
    28    15    27    1
    29    28    29    1
    30    29    30    2
    31    28    31    1
    32    31    32    2
    33    30    32    1
    34    31    33    1
    35    33    34    1
    36    33    35    1
    37    33    36    1
    38    34    37    1
    39    34    38    1
    40    38    39    1
    41    38    40    1
    42    38    41    1
    43    39    42    1
    44    42    43    1
    45    42    44    1
    46    42    45    1
    47    39    46    1
    48    39    47    1
    49    37    48    1
    50    37    49    1
    51    37    50    1
    52    48    51    1
    53    48    52    1
    54    48    53    1
    55    52    54    1
    56    52    55    1
    57    51    56    1
    58    46    57    1
    59    29    58    1
    60    30    59    1
    61    32    60    1
    62    19    52    1
    63    61    62    1
    64    62    63    2
    65    61    64    1
    66    64    65    2
    67    63    65    1
    68    64    66    1
    69    66    67    1
    70    66    68    1
    71    66    69    1
    72    67    70    1
    73    67    71    1
    74    71    72    1
    75    71    73    1
    76    71    74    1
    77    72    75    1
    78    75    76    1
    79    75    77    1
    80    75    78    1
    81    72    79    1
    82    72    80    1
    83    70    81    1
    84    70    82    1
    85    70    83    1
    86    81    84    1
    87    81    85    1
    88    81    86    1
    89    85    87    1
    90    85    88    1
    91    84    89    1
    92    79    90    1
    93    62    91    1
    94    63    92    1
    95    65    93    1
    96    19    85    1
@<TRIPOS>SUBSTRUCTURE
     1 DFA          1 RESIDUE
     2 FDE          1 RESIDUE
     3 FDE          1 RESIDUE