@<TRIPOS>MOLECULE
DFAFDE-3
    61    63  2  0  0
SMALL
gas

@<TRIPOS>ATOM
      1 N1        -10.8841   -1.1470    1.5628 n3      1  DFA       -0.3248
      2 C         -10.2241    0.1530    1.7828 c3      1  DFA        0.0403
      3 C1         -8.7741    0.1530    1.3628 cc      1  DFA        0.0725
      4 H         -10.2741    0.4130    2.8428 h1      1  DFA        0.0498
      5 H1        -10.7441    0.9330    1.2128 h1      1  DFA        0.0498
      6 O          -7.9541    1.1730    1.7528 os      1  DFA       -0.3174
      7 C2         -8.1741   -0.7670    0.5328 cd      1  DFA       -0.0319
      8 C3         -6.7841    0.8430    1.1128 cc      1  DFA        0.0654
      9 C4         -6.8441   -0.3070    0.3628 cd      1  DFA       -0.0327
     10 C5         -5.5941    1.7630    1.1928 c3      1  DFA        0.0418
     11 C6         -4.2741    1.0530    1.3828 cc      1  DFA        0.0654
     12 H2         -5.7341    2.4730    2.0128 hc      1  DFA        0.0409
     13 H3         -5.5541    2.3630    0.2728 hc      1  DFA        0.0409
     14 C7         -4.0641   -0.0270    2.1928 cd      1  DFA       -0.0327
     15 C8         -2.6741   -0.2770    2.1328 cd      1  DFA       -0.0319
     16 O1         -3.1341    1.5630    0.8028 os      1  DFA       -0.3174
     17 C9         -2.1841    0.7030    1.2928 cc      1  DFA        0.0727
     18 C10        -0.7341    0.9330    0.9628 c3      1  DFA        0.0429
     19 N2          0.0859   -0.2770    1.1128 n3      1  DFA       -0.3081
     20 H4         -0.3441    1.7230    1.6228 h1      1  DFA        0.0501
     21 H5         -0.6541    1.2930   -0.0672 h1      1  DFA        0.0501
     22 H6        -11.8641   -1.0670    1.8528 hn      1  DFA        0.1188
     23 H7        -10.8941   -1.3670    0.5728 hn      1  DFA        0.1188
     24 H8          0.0759   -0.5770    2.0928 hn      1  DFA        0.1227
     25 H10        -8.6241   -1.6470    0.0728 ha      1  DFA        0.0648
     26 H11        -6.0641   -0.7470   -0.2372 ha      1  DFA        0.0648
     27 H12        -4.8041   -0.5770    2.7728 ha      1  DFA        0.0648
     28 H13        -2.1141   -1.0370    2.6528 ha      1  DFA        0.0648
     29 O           7.4399    1.5480   -2.2712 os      2  FDE       -0.3212
     30 C           7.0229    2.4980   -3.1722 cc      2  FDE        0.0455
     31 C3          5.6799    2.7900   -3.0912 cd      2  FDE       -0.0364
     32 C4          6.2679    1.2650   -1.6112 cc      2  FDE        0.0725
     33 C5          5.1819    1.9840   -2.0472 cd      2  FDE       -0.0322
     34 C6          6.2509    0.2920   -0.4602 c3      2  FDE        0.0457
     35 N           4.9489   -0.4060   -0.2932 n3      2  FDE       -0.2919
     36 H           6.4919    0.8730    0.4448 h1      2  FDE        0.0503
     37 H1          7.0639   -0.4400   -0.5822 h1      2  FDE        0.0503
     38 C7          4.5469   -0.5210    1.1248 c3      2  FDE        0.0261
     39 C8          4.8129   -1.6770   -1.0552 c3      2  FDE        0.0245
     40 C9          5.0529   -1.5700   -2.5862 c3      2  FDE        0.0639
     41 H2          3.7889   -2.0530   -0.9332 h1      2  FDE        0.0458
     42 H3          5.4899   -2.4350   -0.6422 h1      2  FDE        0.0458
     43 C1          4.3339   -2.7140   -3.3452 c3      2  FDE       -0.0377
     44 H4          4.6939   -3.6970   -3.0112 hc      2  FDE        0.0257
     45 H5          4.5139   -2.6250   -4.4212 hc      2  FDE        0.0257
     46 H6          3.2519   -2.6560   -3.1752 hc      2  FDE        0.0257
     47 O1          6.4529   -1.6670   -2.8762 oh      2  FDE       -0.3921
     48 H7          4.6519   -0.6210   -2.9462 h1      2  FDE        0.0611
     49 C10         3.0559   -0.8530    1.3528 c3      2  FDE        0.0791
     50 H8          4.7449    0.4430    1.6318 h1      2  FDE        0.0458
     51 H9          5.1639   -1.2830    1.6238 h1      2  FDE        0.0458
     52 O2          2.7849   -0.8880    2.7488 oh      2  FDE       -0.3905
     53 C2          2.1109    0.1780    0.6788 c3      2  FDE        0.0229
     54 H10         2.8319   -1.8440    0.9348 h1      2  FDE        0.0628
     55 H11         2.3229    1.1950    1.0338 h1      2  FDE        0.0456
     56 H12         2.2359    0.1640   -0.4112 h1      2  FDE        0.0456
     57 H14         2.9419    0.0150    3.0978 ho      2  FDE        0.2106
     58 H15         6.5899   -1.3530   -3.7862 ho      2  FDE        0.2105
     59 H16         7.7849    2.8950   -3.8292 h4      2  FDE        0.0902
     60 H17         5.1289    3.5030   -3.6812 ha      2  FDE        0.0645
     61 H18         4.1679    1.9460   -1.6642 ha      2  FDE        0.0648
@<TRIPOS>BOND
     1     1     2    1
     2     2     3    1
     3     2     4    1
     4     2     5    1
     5     3     6    1
     6     3     7    2
     7     6     8    1
     8     8     9    2
     9     7     9    1
    10     8    10    1
    11    10    11    1
    12    10    12    1
    13    10    13    1
    14    11    14    2
    15    14    15    1
    16    11    16    1
    17    16    17    1
    18    15    17    2
    19    17    18    1
    20    18    19    1
    21    18    20    1
    22    18    21    1
    23     1    22    1
    24     1    23    1
    25    19    24    1
    26     7    25    1
    27     9    26    1
    28    14    27    1
    29    15    28    1
    30    29    30    1
    31    30    31    2
    32    29    32    1
    33    32    33    2
    34    31    33    1
    35    32    34    1
    36    34    35    1
    37    34    36    1
    38    34    37    1
    39    35    38    1
    40    35    39    1
    41    39    40    1
    42    39    41    1
    43    39    42    1
    44    40    43    1
    45    43    44    1
    46    43    45    1
    47    43    46    1
    48    40    47    1
    49    40    48    1
    50    38    49    1
    51    38    50    1
    52    38    51    1
    53    49    52    1
    54    49    53    1
    55    49    54    1
    56    53    55    1
    57    53    56    1
    58    52    57    1
    59    47    58    1
    60    30    59    1
    61    31    60    1
    62    33    61    1
    63    19    53    1
@<TRIPOS>SUBSTRUCTURE
     1 DFA          1 RESIDUE
     2 FDE          1 RESIDUE