@<TRIPOS>MOLECULE
DFAFDE2-2
    93    96  3  0  0
SMALL
gas

@<TRIPOS>ATOM
      1 N1          0.2619   -0.7790    0.9143 n3      1  DFA       -0.2918
      2 C           1.0019    0.5010    1.0343 c3      1  DFA        0.0457
      3 C1          2.4619    0.4010    0.6743 cc      1  DFA        0.0730
      4 H           0.9219    0.8610    2.0643 h1      1  DFA        0.0503
      5 H1          0.5519    1.2610    0.3843 h1      1  DFA        0.0503
      6 O           3.3219    1.3910    1.0843 os      1  DFA       -0.3174
      7 C2          3.0219   -0.5390   -0.1557 cd      1  DFA       -0.0319
      8 C3          4.4719    1.0210    0.4443 cc      1  DFA        0.0654
      9 C4          4.3719   -0.1190   -0.3157 cd      1  DFA       -0.0327
     10 C5          5.6819    1.9310    0.4743 c3      1  DFA        0.0418
     11 C6          7.0019    1.2310    0.6543 cc      1  DFA        0.0654
     12 H2          5.5519    2.6610    1.2743 hc      1  DFA        0.0409
     13 H3          5.7019    2.5110   -0.4557 hc      1  DFA        0.0409
     14 C7          7.2419    0.1910    1.5043 cd      1  DFA       -0.0327
     15 C8          8.6419   -0.0290    1.4443 cd      1  DFA       -0.0319
     16 O1          8.1219    1.7310    0.0443 os      1  DFA       -0.3174
     17 C9          9.1019    0.9210    0.5543 cc      1  DFA        0.0725
     18 C10        10.5419    1.1610    0.2243 c3      1  DFA        0.0403
     19 N2         11.3819   -0.0390    0.3543 n3      1  DFA       -0.3248
     20 H4         10.9319    1.9510    0.8743 h1      1  DFA        0.0498
     21 H5         10.6119    1.5410   -0.8157 h1      1  DFA        0.0498
     22 H8         11.3819   -0.3490    1.3243 hn      1  DFA        0.1188
     23 H9         12.3519    0.2010    0.1243 hn      1  DFA        0.1188
     24 H10         2.5319   -1.3790   -0.6357 ha      1  DFA        0.0648
     25 H11         5.1319   -0.5790   -0.9457 ha      1  DFA        0.0648
     26 H12         6.5219   -0.3390    2.1243 ha      1  DFA        0.0648
     27 H13         9.2119   -0.7590    1.9943 ha      1  DFA        0.0648
     28 O          -6.9481   -1.8490    3.8143 os      2  FDE       -0.3212
     29 C          -6.6881   -2.3690    5.0543 cc      2  FDE        0.0455
     30 C3         -5.3581   -2.4090    5.3843 cd      2  FDE       -0.0364
     31 C4         -5.6781   -1.5790    3.3643 cc      2  FDE        0.0725
     32 C5         -4.6881   -1.8690    4.2543 cd      2  FDE       -0.0322
     33 C6         -5.4681   -0.8990    2.0343 c3      2  FDE        0.0457
     34 N          -4.2181   -1.3090    1.3443 n3      2  FDE       -0.2919
     35 H          -5.4581    0.1810    2.2343 h1      2  FDE        0.0503
     36 H1         -6.3381   -1.0790    1.3843 h1      2  FDE        0.0503
     37 C7         -3.5981   -0.1490    0.6543 c3      2  FDE        0.0261
     38 C8         -4.3381   -2.5190    0.4943 c3      2  FDE        0.0245
     39 C9         -4.9181   -3.7790    1.1743 c3      2  FDE        0.0639
     40 H2         -3.3381   -2.7890    0.1243 h1      2  FDE        0.0458
     41 H3         -4.9481   -2.2890   -0.3957 h1      2  FDE        0.0458
     42 C1         -4.4681   -5.0690    0.4543 c3      2  FDE       -0.0377
     43 H4         -4.8081   -5.0790   -0.5857 hc      2  FDE        0.0257
     44 H5         -4.8781   -5.9590    0.9643 hc      2  FDE        0.0257
     45 H6         -3.3781   -5.1490    0.4643 hc      2  FDE        0.0257
     46 O1         -6.3481   -3.7390    1.1443 oh      2  FDE       -0.3921
     47 H7         -4.5581   -3.8290    2.2143 h1      2  FDE        0.0611
     48 C10        -2.1381   -0.3690    0.1543 c3      2  FDE        0.0794
     49 H8         -3.5781    0.7110    1.3343 h1      2  FDE        0.0458
     50 H9         -4.2181    0.1310   -0.2057 h1      2  FDE        0.0458
     51 O2         -1.7381    0.8210   -0.5257 oh      2  FDE       -0.3905
     52 C2         -1.1681   -0.7190    1.3143 c3      2  FDE        0.0261
     53 H10        -2.1281   -1.1890   -0.5657 h1      2  FDE        0.0628
     54 H11        -1.2981   -0.0190    2.1443 h1      2  FDE        0.0458
     55 H12        -1.4481   -1.7090    1.6843 h1      2  FDE        0.0458
     56 H14        -1.7381    1.5510    0.1343 ho      2  FDE        0.2106
     57 H15        -6.6781   -4.3890    1.7943 ho      2  FDE        0.2105
     58 H16        -7.5581   -2.6790    5.6343 h4      2  FDE        0.0902
     59 H17        -4.9081   -2.7590    6.3043 ha      2  FDE        0.0645
     60 H18        -3.6181   -1.7190    4.1343 ha      2  FDE        0.0648
     61 O          -2.5771    0.5260   -4.9957 os      3  FDE       -0.3212
     62 C          -3.8661    0.2110   -4.6337 cc      3  FDE        0.0455
     63 C3         -4.2261    0.6840   -3.3927 cd      3  FDE       -0.0364
     64 C4         -2.1521    1.2360   -3.8997 cc      3  FDE        0.0725
     65 C5         -3.0961    1.3770   -2.9127 cd      3  FDE       -0.0322
     66 C6         -0.7761    1.8540   -3.8717 c3      3  FDE        0.0457
     67 N          -0.2141    1.9830   -2.5017 n3      3  FDE       -0.2919
     68 H          -0.8701    2.8460   -4.3417 h1      3  FDE        0.0503
     69 H1         -0.0971    1.2710   -4.5117 h1      3  FDE        0.0503
     70 C7          0.4769    3.2740   -2.2947 c3      3  FDE        0.0245
     71 C8          0.5679    0.8080   -2.0287 c3      3  FDE        0.0261
     72 C9         -0.1821   -0.5530   -2.0607 c3      3  FDE        0.0794
     73 H2          0.8529    0.9740   -0.9817 h1      3  FDE        0.0458
     74 H3          1.4939    0.7170   -2.6087 h1      3  FDE        0.0458
     75 C1          0.4279   -1.5500   -1.0427 c3      3  FDE        0.0261
     76 H4          1.4879   -1.7390   -1.2617 h1      3  FDE        0.0458
     77 H5         -0.1091   -2.5030   -1.0797 h1      3  FDE        0.0458
     78 O1         -0.0811   -1.1420   -3.3627 oh      3  FDE       -0.3905
     79 H7         -1.2271   -0.3920   -1.7917 h1      3  FDE        0.0628
     80 C10         0.7219    3.6500   -0.8167 c3      3  FDE        0.0639
     81 H8         -0.1371    4.0830   -2.7357 h1      3  FDE        0.0458
     82 H9          1.4389    3.2690   -2.8277 h1      3  FDE        0.0458
     83 O2          1.3439    4.9260   -0.7477 oh      3  FDE       -0.3921
     84 C2         -0.5911    3.6800    0.0123 c3      3  FDE       -0.0377
     85 H10         1.3969    2.9130   -0.3577 h1      3  FDE        0.0611
     86 H11        -1.3181    4.3740   -0.4307 hc      3  FDE        0.0257
     87 H12        -0.3881    3.9980    1.0393 hc      3  FDE        0.0257
     88 H13        -1.0491    2.6830    0.0493 hc      3  FDE        0.0257
     89 H14         0.7099    5.5790   -1.1157 ho      3  FDE        0.2105
     90 H15        -0.7501   -1.8460   -3.4217 ho      3  FDE        0.2106
     91 H16        -4.4321   -0.3640   -5.3537 h4      3  FDE        0.0902
     92 H17        -5.1781    0.5750   -2.9027 ha      3  FDE        0.0645
     93 H18        -2.9951    1.9120   -1.9747 ha      3  FDE        0.0648
@<TRIPOS>BOND
     1     1     2    1
     2     2     3    1
     3     2     4    1
     4     2     5    1
     5     3     6    1
     6     3     7    2
     7     6     8    1
     8     8     9    2
     9     7     9    1
    10     8    10    1
    11    10    11    1
    12    10    12    1
    13    10    13    1
    14    11    14    2
    15    14    15    1
    16    11    16    1
    17    16    17    1
    18    15    17    2
    19    17    18    1
    20    18    19    1
    21    18    20    1
    22    18    21    1
    23    19    22    1
    24    19    23    1
    25     7    24    1
    26     9    25    1
    27    14    26    1
    28    15    27    1
    29    28    29    1
    30    29    30    2
    31    28    31    1
    32    31    32    2
    33    30    32    1
    34    31    33    1
    35    33    34    1
    36    33    35    1
    37    33    36    1
    38    34    37    1
    39    34    38    1
    40    38    39    1
    41    38    40    1
    42    38    41    1
    43    39    42    1
    44    42    43    1
    45    42    44    1
    46    42    45    1
    47    39    46    1
    48    39    47    1
    49    37    48    1
    50    37    49    1
    51    37    50    1
    52    48    51    1
    53    48    52    1
    54    48    53    1
    55    52    54    1
    56    52    55    1
    57    51    56    1
    58    46    57    1
    59    29    58    1
    60    30    59    1
    61    32    60    1
    62     1    52    1
    63    61    62    1
    64    62    63    2
    65    61    64    1
    66    64    65    2
    67    63    65    1
    68    64    66    1
    69    66    67    1
    70    66    68    1
    71    66    69    1
    72    67    70    1
    73    67    71    1
    74    71    72    1
    75    71    73    1
    76    71    74    1
    77    72    75    1
    78    75    76    1
    79    75    77    1
    80    72    78    1
    81    72    79    1
    82    70    80    1
    83    70    81    1
    84    70    82    1
    85    80    83    1
    86    80    84    1
    87    80    85    1
    88    84    86    1
    89    84    87    1
    90    84    88    1
    91    83    89    1
    92    78    90    1
    93    62    91    1
    94    63    92    1
    95    65    93    1
    96     1    75    1
@<TRIPOS>SUBSTRUCTURE
     1 DFA          1 RESIDUE
     2 FDE          1 RESIDUE
     3 FDE          1 RESIDUE