@<TRIPOS>MOLECULE
DFAFDE
    61    63  2  0  0
SMALL
gas

@<TRIPOS>ATOM
      1 N1         -0.3848    0.6669   -0.8001 n3      1  DFA       -0.3081
      2 C           0.2752    1.9679   -0.5801 c3      1  DFA        0.0429
      3 C1          1.7252    1.9679   -1.0001 cc      1  DFA        0.0727
      4 H           0.2252    2.2279    0.4799 h1      1  DFA        0.0501
      5 H1         -0.2448    2.7479   -1.1501 h1      1  DFA        0.0501
      6 O           2.5452    2.9869   -0.6101 os      1  DFA       -0.3174
      7 C2          2.3252    1.0479   -1.8301 cd      1  DFA       -0.0319
      8 C3          3.7152    2.6579   -1.2501 cc      1  DFA        0.0654
      9 C4          3.6552    1.5079   -2.0001 cd      1  DFA       -0.0327
     10 C5          4.9052    3.5779   -1.1701 c3      1  DFA        0.0418
     11 C6          6.2252    2.8679   -0.9801 cc      1  DFA        0.0654
     12 H2          4.7652    4.2869   -0.3501 hc      1  DFA        0.0409
     13 H3          4.9452    4.1779   -2.0901 hc      1  DFA        0.0409
     14 C7          6.4352    1.7879   -0.1701 cd      1  DFA       -0.0327
     15 C8          7.8252    1.5379   -0.2301 cd      1  DFA       -0.0319
     16 O1          7.3652    3.3769   -1.5601 os      1  DFA       -0.3174
     17 C9          8.3152    2.5179   -1.0701 cc      1  DFA        0.0725
     18 C10         9.7652    2.7479   -1.4001 c3      1  DFA        0.0403
     19 N2         10.5852    1.5379   -1.2501 n3      1  DFA       -0.3248
     20 H4         10.1552    3.5379   -0.7401 h1      1  DFA        0.0498
     21 H5          9.8452    3.1069   -2.4301 h1      1  DFA        0.0498
     22 H6         -0.3948    0.4479   -1.7901 hn      1  DFA        0.1227
     23 H8         10.5752    1.2379   -0.2701 hn      1  DFA        0.1188
     24 H9         11.5652    1.7579   -1.4601 hn      1  DFA        0.1188
     25 H10         1.8752    0.1679   -2.2901 ha      1  DFA        0.0648
     26 H11         4.4352    1.0669   -2.6001 ha      1  DFA        0.0648
     27 H12         5.6952    1.2379    0.4099 ha      1  DFA        0.0648
     28 H13         8.3852    0.7769    0.2899 ha      1  DFA        0.0648
     29 O          -3.2908   -4.4121   -1.0281 os      2  FDE       -0.3212
     30 C          -2.2238   -5.0281   -0.4171 cc      2  FDE        0.0455
     31 C3         -2.0938   -4.7191    0.9179 cd      2  FDE       -0.0364
     32 C4         -3.8278   -3.6971    0.0159 cc      2  FDE        0.0725
     33 C5         -3.1658   -3.8491    1.2089 cd      2  FDE       -0.0322
     34 C6         -5.0878   -2.8911   -0.1741 c3      2  FDE        0.0457
     35 N          -5.1798   -1.7151    0.7299 n3      2  FDE       -0.2919
     36 H          -5.9288   -3.5791    0.0069 h1      2  FDE        0.0503
     37 H1         -5.1688   -2.5741   -1.2251 h1      2  FDE        0.0503
     38 C7         -6.5378   -1.5331    1.2849 c3      2  FDE        0.0245
     39 C8         -4.5838   -0.4611    0.1939 c3      2  FDE        0.0261
     40 C9         -3.0948   -0.5571   -0.2401 c3      2  FDE        0.0791
     41 H2         -4.6248    0.3099    0.9749 h1      2  FDE        0.0458
     42 H3         -5.1778   -0.0971   -0.6541 h1      2  FDE        0.0458
     43 C1         -2.4118    0.8329   -0.2011 c3      2  FDE        0.0229
     44 H4         -2.9168    1.5409   -0.8721 h1      2  FDE        0.0456
     45 H5         -2.4328    1.2339    0.8199 h1      2  FDE        0.0456
     46 O1         -3.0008   -1.0521   -1.5811 oh      2  FDE       -0.3905
     47 H7         -2.5638   -1.2151    0.4499 h1      2  FDE        0.0628
     48 C10        -6.6168   -0.6091    2.5199 c3      2  FDE        0.0639
     49 H8         -6.9328   -2.5211    1.5949 h1      2  FDE        0.0458
     50 H9         -7.2088   -1.1461    0.5039 h1      2  FDE        0.0458
     51 O2         -7.9588   -0.5541    2.9879 oh      2  FDE       -0.3921
     52 C2         -5.6958   -1.0851    3.6759 c3      2  FDE       -0.0377
     53 H10        -6.3098    0.4079    2.2379 h1      2  FDE        0.0611
     54 H11        -5.9358   -2.1171    3.9689 hc      2  FDE        0.0257
     55 H12        -5.8148   -0.4401    4.5509 hc      2  FDE        0.0257
     56 H13        -4.6428   -1.0541    3.3699 hc      2  FDE        0.0257
     57 H14        -8.2018   -1.4591    3.2809 ho      2  FDE        0.2105
     58 H15        -2.0818   -1.3321   -1.7301 ho      2  FDE        0.2106
     59 H16        -1.6238   -5.6691   -1.0471 h4      2  FDE        0.0902
     60 H17        -1.3498   -5.0851    1.6039 ha      2  FDE        0.0645
     61 H18        -3.4188   -3.4051    2.1649 ha      2  FDE        0.0648
@<TRIPOS>BOND
     1     1     2    1
     2     2     3    1
     3     2     4    1
     4     2     5    1
     5     3     6    1
     6     3     7    2
     7     6     8    1
     8     8     9    2
     9     7     9    1
    10     8    10    1
    11    10    11    1
    12    10    12    1
    13    10    13    1
    14    11    14    2
    15    14    15    1
    16    11    16    1
    17    16    17    1
    18    15    17    2
    19    17    18    1
    20    18    19    1
    21    18    20    1
    22    18    21    1
    23     1    22    1
    24    19    23    1
    25    19    24    1
    26     7    25    1
    27     9    26    1
    28    14    27    1
    29    15    28    1
    30    29    30    1
    31    30    31    2
    32    29    32    1
    33    32    33    2
    34    31    33    1
    35    32    34    1
    36    34    35    1
    37    34    36    1
    38    34    37    1
    39    35    38    1
    40    35    39    1
    41    39    40    1
    42    39    41    1
    43    39    42    1
    44    40    43    1
    45    43    44    1
    46    43    45    1
    47    40    46    1
    48    40    47    1
    49    38    48    1
    50    38    49    1
    51    38    50    1
    52    48    51    1
    53    48    52    1
    54    48    53    1
    55    52    54    1
    56    52    55    1
    57    52    56    1
    58    51    57    1
    59    46    58    1
    60    30    59    1
    61    31    60    1
    62    33    61    1
    63     1    43    1
@<TRIPOS>SUBSTRUCTURE
     1 DFA          1 RESIDUE
     2 FDE          1 RESIDUE