@<TRIPOS>MOLECULE
DFAFDE2-7
    93    96  3  0  0
SMALL
gas

@<TRIPOS>ATOM
      1 N1         -9.9497   -0.1507    0.5381 n3      1  DFA       -0.3248
      2 C          -9.2697    1.1393    0.7381 c3      1  DFA        0.0403
      3 C1         -7.8297    1.1393    0.2981 cc      1  DFA        0.0725
      4 H          -9.3197    1.4093    1.7981 h1      1  DFA        0.0498
      5 H1         -9.8097    1.9193    0.1781 h1      1  DFA        0.0498
      6 O          -6.9897    2.1293    0.7281 os      1  DFA       -0.3174
      7 C2         -7.2697    0.2493   -0.5819 cd      1  DFA       -0.0319
      8 C3         -5.8397    1.8093    0.0581 cc      1  DFA        0.0654
      9 C4         -5.9297    0.7093   -0.7519 cd      1  DFA       -0.0327
     10 C5         -4.6397    2.7293    0.1281 c3      1  DFA        0.0418
     11 C6         -3.3197    2.0193    0.2481 cc      1  DFA        0.0654
     12 H2         -4.7597    3.4093    0.9881 hc      1  DFA        0.0409
     13 H3         -4.6297    3.3693   -0.7619 hc      1  DFA        0.0409
     14 C7         -3.0597    0.9593    1.0881 cd      1  DFA       -0.0327
     15 C8         -1.6597    0.7393    0.9681 cd      1  DFA       -0.0319
     16 O1         -2.2197    2.5193   -0.4019 os      1  DFA       -0.3174
     17 C9         -1.2297    1.6893    0.0781 cc      1  DFA        0.0730
     18 C10         0.2103    1.9693   -0.2919 c3      1  DFA        0.0457
     19 N2          1.1403    0.8893    0.0781 n3      1  DFA       -0.2918
     20 H4          0.5103    2.8993    0.2081 h1      1  DFA        0.0503
     21 H5          0.2603    2.1393   -1.3819 h1      1  DFA        0.0503
     22 H6        -10.9197   -0.0807    0.8381 hn      1  DFA        0.1188
     23 H7         -9.9697   -0.3707   -0.4519 hn      1  DFA        0.1188
     24 H10        -7.7297   -0.5907   -1.0819 ha      1  DFA        0.0648
     25 H11        -5.1697    0.2893   -1.4019 ha      1  DFA        0.0648
     26 H12        -3.7597    0.4393    1.7281 ha      1  DFA        0.0648
     27 H13        -1.0697    0.0093    1.4981 ha      1  DFA        0.0648
     28 O           7.9803    2.4693   -3.2919 os      2  FDE       -0.3212
     29 C           7.6503    3.4093   -4.2319 cc      2  FDE        0.0455
     30 C5          6.3303    3.8093   -4.1619 cd      2  FDE       -0.0364
     31 C6          6.7903    2.2893   -2.6319 cc      2  FDE        0.0725
     32 C7          5.7703    3.0693   -3.1019 cd      2  FDE       -0.0322
     33 C8          6.7003    1.3693   -1.4419 c3      2  FDE        0.0457
     34 N           5.4003    0.6693   -1.3319 n3      2  FDE       -0.2919
     35 H           6.8703    1.9993   -0.5619 h1      2  FDE        0.0503
     36 H1          7.5203    0.6393   -1.4719 h1      2  FDE        0.0503
     37 C9          4.9903    0.5093    0.0881 c3      2  FDE        0.0261
     38 C10         5.2803   -0.6007   -2.1119 c3      2  FDE        0.0245
     39 C3          5.6603   -0.5207   -3.6119 c3      2  FDE        0.0639
     40 H2          4.2503   -0.9507   -2.0619 h1      2  FDE        0.0458
     41 H3          5.9103   -1.3707   -1.6419 h1      2  FDE        0.0458
     42 C1          4.9803   -1.6407   -4.4219 c3      2  FDE       -0.0377
     43 H4          5.2903   -2.6307   -4.0519 hc      2  FDE        0.0257
     44 H5          5.2503   -1.5807   -5.4819 hc      2  FDE        0.0257
     45 H6          3.8903   -1.5707   -4.3419 hc      2  FDE        0.0257
     46 O1          7.0703   -0.6507   -3.7819 oh      2  FDE       -0.3921
     47 H7          5.3103    0.4393   -4.0219 h1      2  FDE        0.0611
     48 C4          3.5103    0.1193    0.3081 c3      2  FDE        0.0794
     49 H8          5.1703    1.4493    0.6181 h1      2  FDE        0.0458
     50 H9          5.6303   -0.2507    0.5581 h1      2  FDE        0.0458
     51 O2          3.3003   -0.0607    1.7181 oh      2  FDE       -0.3905
     52 C2          2.5403    1.2093   -0.2219 c3      2  FDE        0.0261
     53 H10         3.2903   -0.8307   -0.1919 h1      2  FDE        0.0628
     54 H11         2.8103    2.1693    0.2381 h1      2  FDE        0.0458
     55 H12         2.6803    1.3093   -1.3119 h1      2  FDE        0.0458
     56 H14         3.4603    0.7893    2.1481 ho      2  FDE        0.2106
     57 H15         7.3003   -0.3207   -4.6719 ho      2  FDE        0.2105
     58 H16         8.4403    3.7293   -4.8919 h4      2  FDE        0.0902
     59 H17         5.8403    4.5393   -4.7919 ha      2  FDE        0.0645
     60 H18         4.7503    3.1193   -2.7319 ha      2  FDE        0.0648
     61 O          -3.3597   -3.2777   -0.3239 os      3  FDE       -0.3212
     62 C          -4.3027   -2.3757   -0.7569 cc      3  FDE        0.0455
     63 C5         -3.9687   -1.0627   -0.5149 cd      3  FDE       -0.0364
     64 C6         -2.4047   -2.4417    0.2021 cc      3  FDE        0.0725
     65 C7         -2.7037   -1.1047    0.1061 cd      3  FDE       -0.0322
     66 C8         -1.1177   -2.9987    0.7551 c3      3  FDE        0.0457
     67 N          -0.5227   -2.1607    1.8301 n3      3  FDE       -0.2919
     68 H          -0.4207   -3.0807   -0.0949 h1      3  FDE        0.0503
     69 H1         -1.2847   -4.0247    1.1181 h1      3  FDE        0.0503
     70 C9          0.9453   -2.0387    1.7051 c3      3  FDE        0.0261
     71 C10        -0.9777   -2.4897    3.2091 c3      3  FDE        0.0245
     72 C3         -2.5137   -2.4557    3.4351 c3      3  FDE        0.0639
     73 H2         -0.5507   -1.7547    3.9041 h1      3  FDE        0.0458
     74 H3         -0.5967   -3.4757    3.5021 h1      3  FDE        0.0458
     75 C1         -2.8527   -2.2087    4.9271 c3      3  FDE       -0.0377
     76 H4         -2.4327   -2.9997    5.5631 hc      3  FDE        0.0257
     77 H5         -3.9387   -2.1897    5.0691 hc      3  FDE        0.0257
     78 H6         -2.4507   -1.2407    5.2491 hc      3  FDE        0.0257
     79 O1         -3.0977   -3.7087    3.0561 oh      3  FDE       -0.3921
     80 H7         -2.9437   -1.6407    2.8511 h1      3  FDE        0.0611
     81 C4          1.5733   -0.8817    2.5131 c3      3  FDE        0.0794
     82 H8          1.2003   -1.8647    0.6411 h1      3  FDE        0.0458
     83 H9          1.4213   -2.9847    2.0021 h1      3  FDE        0.0458
     84 O2          2.9733   -0.8397    2.2731 oh      3  FDE       -0.3905
     85 C2          0.9543    0.4953    2.1541 c3      3  FDE        0.0261
     86 H10         1.4133   -1.0567    3.5871 h1      3  FDE        0.0628
     87 H12         1.4553    1.2963    2.7051 h1      3  FDE        0.0458
     88 H11        -0.1127    0.5203    2.4111 h1      3  FDE        0.0458
     89 H14         3.0993   -0.6357    1.3211 ho      3  FDE        0.2106
     90 H15        -4.0577   -3.5747    2.9721 ho      3  FDE        0.2105
     91 H16        -5.1817   -2.7977   -1.2249 h4      3  FDE        0.0902
     92 H17        -4.5377   -0.1847   -0.7709 ha      3  FDE        0.0645
     93 H18        -2.1007   -0.2657    0.4371 ha      3  FDE        0.0648
@<TRIPOS>BOND
     1     1     2    1
     2     2     3    1
     3     2     4    1
     4     2     5    1
     5     3     6    1
     6     3     7    2
     7     6     8    1
     8     8     9    2
     9     7     9    1
    10     8    10    1
    11    10    11    1
    12    10    12    1
    13    10    13    1
    14    11    14    2
    15    14    15    1
    16    11    16    1
    17    16    17    1
    18    15    17    2
    19    17    18    1
    20    18    19    1
    21    18    20    1
    22    18    21    1
    23     1    22    1
    24     1    23    1
    25     7    24    1
    26     9    25    1
    27    14    26    1
    28    15    27    1
    29    28    29    1
    30    29    30    2
    31    28    31    1
    32    31    32    2
    33    30    32    1
    34    31    33    1
    35    33    34    1
    36    33    35    1
    37    33    36    1
    38    34    37    1
    39    34    38    1
    40    38    39    1
    41    38    40    1
    42    38    41    1
    43    39    42    1
    44    42    43    1
    45    42    44    1
    46    42    45    1
    47    39    46    1
    48    39    47    1
    49    37    48    1
    50    37    49    1
    51    37    50    1
    52    48    51    1
    53    48    52    1
    54    48    53    1
    55    52    54    1
    56    52    55    1
    57    51    56    1
    58    46    57    1
    59    29    58    1
    60    30    59    1
    61    32    60    1
    62    19    52    1
    63    61    62    1
    64    62    63    2
    65    61    64    1
    66    64    65    2
    67    63    65    1
    68    64    66    1
    69    66    67    1
    70    66    68    1
    71    66    69    1
    72    67    70    1
    73    67    71    1
    74    71    72    1
    75    71    73    1
    76    71    74    1
    77    72    75    1
    78    75    76    1
    79    75    77    1
    80    75    78    1
    81    72    79    1
    82    72    80    1
    83    70    81    1
    84    70    82    1
    85    70    83    1
    86    81    84    1
    87    81    85    1
    88    81    86    1
    89    85    87    1
    90    85    88    1
    91    84    89    1
    92    79    90    1
    93    62    91    1
    94    63    92    1
    95    65    93    1
    96    19    85    1
@<TRIPOS>SUBSTRUCTURE
     1 DFA          1 RESIDUE
     2 FDE          1 RESIDUE
     3 FDE          1 RESIDUE
