@<TRIPOS>MOLECULE
DFAFDE-5
    61    63  2  0  0
SMALL
gas

@<TRIPOS>ATOM
      1 N1         -1.7660   -2.4290    0.3062 n3      1  DFA       -0.3081
      2 C          -1.0950   -1.1390    0.5262 c3      1  DFA        0.0429
      3 C1          0.3540   -1.1290    0.0962 cc      1  DFA        0.0727
      4 H          -1.1550   -0.8690    1.5862 h1      1  DFA        0.0501
      5 H1         -1.6250   -0.3590   -0.0338 h1      1  DFA        0.0501
      6 O           1.1650   -0.1090    0.4962 os      1  DFA       -0.3174
      7 C2          0.9450   -2.0490   -0.7338 cd      1  DFA       -0.0319
      8 C3          2.3340   -0.4390   -0.1438 cc      1  DFA        0.0654
      9 C4          2.2750   -1.5790   -0.8938 cd      1  DFA       -0.0327
     10 C5          3.5250    0.4810   -0.0638 c3      1  DFA        0.0418
     11 C6          4.8450   -0.2190    0.1262 cc      1  DFA        0.0654
     12 H2          3.3850    1.1910    0.7562 hc      1  DFA        0.0409
     13 H3          3.5640    1.0810   -0.9838 hc      1  DFA        0.0409
     14 C7          5.0450   -1.3090    0.9362 cd      1  DFA       -0.0327
     15 C8          6.4440   -1.5490    0.8762 cd      1  DFA       -0.0319
     16 O1          5.9840    0.2810   -0.4538 os      1  DFA       -0.3174
     17 C9          6.9340   -0.5790    0.0362 cc      1  DFA        0.0725
     18 C10         8.3840   -0.3490   -0.2938 c3      1  DFA        0.0403
     19 N2          9.2040   -1.5590   -0.1438 n3      1  DFA       -0.3248
     20 H4          8.7740    0.4410    0.3662 h1      1  DFA        0.0498
     21 H5          8.4640    0.0110   -1.3238 h1      1  DFA        0.0498
     22 H6         -1.7660   -2.6490   -0.6838 hn      1  DFA        0.1227
     23 H8          9.1840   -1.8690    0.8262 hn      1  DFA        0.1188
     24 H9         10.1750   -1.3390   -0.3538 hn      1  DFA        0.1188
     25 H10         0.4940   -2.9290   -1.1838 ha      1  DFA        0.0648
     26 H11         3.0540   -2.0290   -1.5038 ha      1  DFA        0.0648
     27 H12         4.3140   -1.8490    1.5262 ha      1  DFA        0.0648
     28 H13         7.0050   -2.3190    1.3962 ha      1  DFA        0.0648
     29 O          -1.4460    3.5400   -0.9168 os      2  FDE       -0.3212
     30 C          -0.5890    3.9000    0.0962 cc      2  FDE        0.0455
     31 C3         -0.3520    2.8950    1.0072 cd      2  FDE       -0.0364
     32 C4         -1.7280    2.2370   -0.5858 cc      2  FDE        0.0725
     33 C5         -1.0950    1.7880    0.5472 cd      2  FDE       -0.0322
     34 C6         -2.6070    1.3930   -1.4728 c3      2  FDE        0.0457
     35 N          -3.3470    0.3330   -0.7378 n3      2  FDE       -0.2919
     36 H          -1.9460    0.9420   -2.2298 h1      2  FDE        0.0503
     37 H1         -3.3090    2.0390   -2.0218 h1      2  FDE        0.0503
     38 C7         -3.3680   -0.9520   -1.4688 c3      2  FDE        0.0261
     39 C8         -4.6790    0.7420   -0.2158 c3      2  FDE        0.0245
     40 C9         -4.6830    1.9920    0.7082 c3      2  FDE        0.0639
     41 H2         -5.0900   -0.0810    0.3832 h1      2  FDE        0.0458
     42 H3         -5.3710    0.9150   -1.0498 h1      2  FDE        0.0458
     43 C1         -5.9140    1.9860    1.6492 c3      2  FDE       -0.0377
     44 H4         -6.8510    1.9850    1.0742 hc      2  FDE        0.0257
     45 H5         -5.9030    2.8730    2.2912 hc      2  FDE        0.0257
     46 H6         -5.8910    1.0990    2.2932 hc      2  FDE        0.0257
     47 O1         -4.7400    3.1880   -0.0788 oh      2  FDE       -0.3921
     48 H7         -3.7840    1.9820    1.3262 h1      2  FDE        0.0611
     49 C10        -3.7470   -2.1800   -0.6128 c3      2  FDE        0.0791
     50 H8         -2.3590   -1.1450   -1.8818 h1      2  FDE        0.0458
     51 H9         -4.0600   -0.8820   -2.3208 h1      2  FDE        0.0458
     52 O2         -3.6850   -3.3540   -1.4128 oh      2  FDE       -0.3905
     53 C2         -2.8170   -2.3540    0.6182 c3      2  FDE        0.0229
     54 H10        -4.7780   -2.0690   -0.2468 h1      2  FDE        0.0628
     55 H12        -3.0790   -3.2600    1.1722 h1      2  FDE        0.0456
     56 H11        -2.9100   -1.4990    1.2992 h1      2  FDE        0.0456
     57 H14        -2.7500   -3.4670   -1.6908 ho      2  FDE        0.2106
     58 H15        -4.4930    3.9330    0.4972 ho      2  FDE        0.2105
     59 H16        -0.2120    4.9130    0.0602 h4      2  FDE        0.0902
     60 H17         0.2860    2.9350    1.8722 ha      2  FDE        0.0645
     61 H18        -1.1480    0.7970    0.9852 ha      2  FDE        0.0648
@<TRIPOS>BOND
     1     1     2    1
     2     2     3    1
     3     2     4    1
     4     2     5    1
     5     3     6    1
     6     3     7    2
     7     6     8    1
     8     8     9    2
     9     7     9    1
    10     8    10    1
    11    10    11    1
    12    10    12    1
    13    10    13    1
    14    11    14    2
    15    14    15    1
    16    11    16    1
    17    16    17    1
    18    15    17    2
    19    17    18    1
    20    18    19    1
    21    18    20    1
    22    18    21    1
    23     1    22    1
    24    19    23    1
    25    19    24    1
    26     7    25    1
    27     9    26    1
    28    14    27    1
    29    15    28    1
    30    29    30    1
    31    30    31    2
    32    29    32    1
    33    32    33    2
    34    31    33    1
    35    32    34    1
    36    34    35    1
    37    34    36    1
    38    34    37    1
    39    35    38    1
    40    35    39    1
    41    39    40    1
    42    39    41    1
    43    39    42    1
    44    40    43    1
    45    43    44    1
    46    43    45    1
    47    43    46    1
    48    40    47    1
    49    40    48    1
    50    38    49    1
    51    38    50    1
    52    38    51    1
    53    49    52    1
    54    49    53    1
    55    49    54    1
    56    53    55    1
    57    53    56    1
    58    52    57    1
    59    47    58    1
    60    30    59    1
    61    31    60    1
    62    33    61    1
    63     1    53    1
@<TRIPOS>SUBSTRUCTURE
     1 DFA          1 RESIDUE
     2 FDE          1 RESIDUE