@<TRIPOS>MOLECULE
DFA
   61    63     1     0     0
SMALL
gas


@<TRIPOS>ATOM
      1 N1          11.3900    10.5900    11.2800 n3         1 DFA      -0.308136
      2 C           12.0500    11.8900    11.4900 c3         1 DFA       0.042890
      3 C1          13.5000    11.8900    11.0700 cc         1 DFA       0.072722
      4 H           12.0000    12.1500    12.5600 h1         1 DFA       0.050053
      5 H1          11.5200    12.6700    10.9300 h1         1 DFA       0.050053
      6 O           14.3200    12.9200    11.4600 os         1 DFA      -0.317392
      7 C2          14.0900    10.9800    10.2400 cd         1 DFA      -0.031866
      8 C3          15.4800    12.5900    10.8200 cc         1 DFA       0.065414
      9 C4          15.4200    11.4500    10.0700 cd         1 DFA      -0.032741
     10 C5          16.6800    13.5100    10.9000 c3         1 DFA       0.041833
     11 C6          17.9900    12.8100    11.0900 cc         1 DFA       0.065413
     12 H2          16.5300    14.2200    11.7200 hc         1 DFA       0.040856
     13 H3          16.7200    14.1100     9.9800 hc         1 DFA       0.040856
     14 C7          18.2000    11.7200    11.9100 cd         1 DFA      -0.032741
     15 C8          19.5900    11.4800    11.8500 cd         1 DFA      -0.031874
     16 O1          19.1300    13.3000    10.5100 os         1 DFA      -0.317401
     17 C9          20.0800    12.4500    11.0000 cc         1 DFA       0.072502
     18 C10         21.5300    12.6700    10.6800 c3         1 DFA       0.040287
     19 N2          22.3500    11.4600    10.8200 n3         1 DFA      -0.324821
     20 H4          21.9200    13.4600    11.3400 h1         1 DFA       0.049825
     21 H5          21.6100    13.0400     9.6500 h1         1 DFA       0.049825
     22 H6          10.4100    10.6600    11.5700 hn         1 DFA       0.122722
     23 H8          22.3300    11.1500    11.7900 hn         1 DFA       0.118783
     24 H9          23.3200    11.6800    10.6000 hn         1 DFA       0.118783
     25 H10         13.6500    10.1000     9.7800 ha         1 DFA       0.064841
     26 H11         16.2000    11.0100     9.4600 ha         1 DFA       0.064804
     27 H12         17.4600    11.1800    12.5000 ha         1 DFA       0.064804
     28 H13         20.1500    10.7100    12.3800 ha         1 DFA       0.064841
     29 O           12.8150    14.2360     6.7770 os         2 FDE      -0.321161
     30 C           13.1630    13.5530     5.6420 cc         2 FDE       0.045538
     31 C3          12.1510    12.7670     5.1430 cd         2 FDE      -0.036413
     32 C4          11.5190    13.8190     6.9650 cc         2 FDE       0.072549
     33 C5          11.0610    12.9520     6.0180 cd         2 FDE      -0.032169
     34 C6          10.6970    14.3710     8.1100 c3         2 FDE       0.045676
     35 N            9.6660    13.4160     8.5850 n3         2 FDE      -0.291867
     36 H           10.2300    15.2840     7.7340 h1         2 FDE       0.050290
     37 H1          11.3560    14.6650     8.9290 h1         2 FDE       0.050290
     38 C7           8.3770    14.0970     8.8660 c3         2 FDE       0.024533
     39 C8          10.0990    12.4920     9.6730 c3         2 FDE       0.026065
     40 C9          11.3530    11.6330     9.3590 c3         2 FDE       0.079097
     41 H2           9.2830    11.7940     9.8820 h1         2 FDE       0.045830
     42 H3          10.2860    13.0590    10.5930 h1         2 FDE       0.045830
     43 C1          11.3790    10.3510    10.2040 c3         2 FDE       0.022915
     44 H5          12.2620     9.7450     9.9730 h1         2 FDE       0.045553
     45 H6          10.4910     9.7340    10.0090 h1         2 FDE       0.045553
     46 O1          12.5420    12.3740     9.6300 oh         2 FDE      -0.390474
     47 H7          11.3190    11.3340     8.3010 h1         2 FDE       0.062772
     48 C10          7.1540    13.1420     8.9830 c3         2 FDE       0.063861
     49 H8           8.1580    14.8060     8.0660 h1         2 FDE       0.045768
     50 H9           8.4620    14.6810     9.7950 h1         2 FDE       0.045768
     51 O2           5.9820    13.9190     9.1990 oh         2 FDE      -0.392095
     52 C2           6.9610    12.2770     7.7080 c3         2 FDE      -0.037685
     53 H10          7.2950    12.4740     9.8290 h1         2 FDE       0.061112
     54 H11          6.8720    12.9170     6.8200 hc         2 FDE       0.025722
     55 H12          6.0590    11.6680     7.7940 hc         2 FDE       0.025722
     56 H13          7.8190    11.6100     7.5580 hc         2 FDE       0.025722
     57 H14          5.8430    14.4730     8.4160 ho         2 FDE       0.210503
     58 H15         13.2850    11.9080     9.1970 ho         2 FDE       0.210585
     59 H16         14.1640    13.7140     5.2670 h4         2 FDE       0.090152
     60 H17         12.1860    12.1430     4.2480 ha         2 FDE       0.064488
     61 H18         10.0730    12.4980     5.9430 ha         2 FDE       0.064831
@<TRIPOS>BOND
     1     1     2 1   
     2     2     3 1   
     3     2     4 1   
     4     2     5 1   
     5     3     6 1   
     6     3     7 2   
     7     6     8 1   
     8     8     9 2   
     9     7     9 1   
    10     8    10 1   
    11    10    11 1   
    12    10    12 1   
    13    10    13 1   
    14    11    14 2   
    15    14    15 1   
    16    11    16 1   
    17    16    17 1   
    18    15    17 2   
    19    17    18 1   
    20    18    19 1   
    21    18    20 1   
    22    18    21 1   
    23     1    22 1   
    24    19    23 1   
    25    19    24 1   
    26     7    25 1   
    27     9    26 1   
    28    14    27 1   
    29    15    28 1   
    30    29    30 1   
    31    30    31 2   
    32    29    32 1   
    33    32    33 2   
    34    31    33 1   
    35    32    34 1   
    36    34    35 1   
    37    34    36 1   
    38    34    37 1   
    39    35    38 1   
    40    35    39 1   
    41    39    40 1   
    42    39    41 1   
    43    39    42 1   
    44    40    43 1   
    45    43    44 1   
    46    43    45 1   
    47    40    46 1   
    48    40    47 1   
    49    38    48 1   
    50    38    49 1   
    51    38    50 1   
    52    48    51 1   
    53    48    52 1   
    54    48    53 1   
    55    52    54 1   
    56    52    55 1   
    57    52    56 1   
    58    51    57 1   
    59    46    58 1   
    60    30    59 1   
    61    31    60 1   
    62    33    61 1   
    63     1    43 1   
@<TRIPOS>SUBSTRUCTURE
     1 DFA         1 TEMP              0 ****  ****    0 ROOT
