@<TRIPOS>MOLECULE
DFAFDE2
    93    96  3  0  0
SMALL
gas

@<TRIPOS>ATOM
      1 N1          0.0050   -0.4298    0.5709 n3      1  DFA       -0.2918
      2 C           0.8650    0.5102    1.3309 c3      1  DFA        0.0457
      3 C1          2.3350    0.4502    0.9909 cc      1  DFA        0.0730
      4 H           0.7450    0.3002    2.4009 h1      1  DFA        0.0503
      5 H1          0.5150    1.5302    1.1709 h1      1  DFA        0.0503
      6 O           3.0550    1.6102    0.9509 os      1  DFA       -0.3174
      7 C2          3.0350   -0.6698    0.6409 cd      1  DFA       -0.0319
      8 C3          4.2650    1.1602    0.4909 cc      1  DFA        0.0654
      9 C4          4.3250   -0.1998    0.2809 cd      1  DFA       -0.0327
     10 C5          5.3650    2.1302    0.1809 c3      1  DFA        0.0418
     11 C6          6.7450    1.6502    0.5709 cc      1  DFA        0.0654
     12 H2          5.1650    3.0802    0.7009 hc      1  DFA        0.0409
     13 H3          5.3450    2.3702   -0.8891 hc      1  DFA        0.0409
     14 C7          7.0450    1.0002    1.7409 cd      1  DFA       -0.0327
     15 C8          8.4550    0.8202    1.6909 cd      1  DFA       -0.0319
     16 O1          7.8150    1.9202   -0.2391 os      1  DFA       -0.3174
     17 C9          8.8350    1.3802    0.5009 cc      1  DFA        0.0725
     18 C10        10.2650    1.5002    0.0309 c3      1  DFA        0.0403
     19 N2         10.9650    0.2102    0.0609 n3      1  DFA       -0.3248
     20 H4         10.7850    2.2202    0.6609 h1      1  DFA        0.0498
     21 H5         10.2650    1.8902   -0.9991 h1      1  DFA        0.0498
     22 H8         11.0050   -0.1298    1.0209 hn      1  DFA        0.1188
     23 H9         11.9250    0.3402   -0.2391 hn      1  DFA        0.1188
     24 H10         2.6650   -1.6898    0.5709 ha      1  DFA        0.0648
     25 H11         5.1550   -0.7798   -0.0991 ha      1  DFA        0.0648
     26 H12         6.3750    0.7102    2.5309 ha      1  DFA        0.0648
     27 H13         9.0850    0.3502    2.4409 ha      1  DFA        0.0648
     28 O           0.9950    3.4402   -4.1491 os      2  FDE       -0.3212
     29 C           1.3850    2.7502   -5.2691 cc      2  FDE        0.0455
     30 C3          0.4050    1.9502   -5.7991 cd      2  FDE       -0.0364
     31 C4         -0.2950    3.0002   -3.9991 cc      2  FDE        0.0725
     32 C5         -0.7250    2.1202   -4.9591 cd      2  FDE       -0.0322
     33 C6         -1.1450    3.5002   -2.8491 c3      2  FDE        0.0457
     34 N          -2.0550    2.4702   -2.2991 n3      2  FDE       -0.2919
     35 H          -1.7250    4.3502   -3.2491 h1      2  FDE        0.0503
     36 H1         -0.5050    3.9102   -2.0591 h1      2  FDE        0.0503
     37 C7         -3.3550    3.0502   -1.8891 c3      2  FDE        0.0245
     38 C8         -1.4650    1.5702   -1.2691 c3      2  FDE        0.0261
     39 C9         -0.1350    0.8802   -1.6591 c3      2  FDE        0.0794
     40 H2         -2.1850    0.7702   -1.0391 h1      2  FDE        0.0458
     41 H3         -1.3050    2.1302   -0.3291 h1      2  FDE        0.0458
     42 C1          0.1050   -0.4598   -0.9091 c3      2  FDE        0.0261
     43 H4          1.0950   -0.8398   -1.1991 h1      2  FDE        0.0458
     44 H5         -0.6250   -1.1898   -1.2791 h1      2  FDE        0.0458
     45 O1          0.9650    1.7702   -1.4491 oh      2  FDE       -0.3905
     46 H7         -0.1850    0.6202   -2.7191 h1      2  FDE        0.0628
     47 C10        -4.4850    2.0202   -1.6591 c3      2  FDE        0.0639
     48 H8         -3.7050    3.7402   -2.6691 h1      2  FDE        0.0458
     49 H9         -3.2250    3.6402   -0.9691 h1      2  FDE        0.0458
     50 O2         -5.6850    2.7102   -1.3191 oh      2  FDE       -0.3921
     51 C2         -4.7450    1.1402   -2.9091 c3      2  FDE       -0.0377
     52 H10        -4.2150    1.3602   -0.8191 h1      2  FDE        0.0611
     53 H11        -4.9650    1.7702   -3.7791 hc      2  FDE        0.0257
     54 H12        -5.5950    0.4702   -2.7391 hc      2  FDE        0.0257
     55 H13        -3.8650    0.5302   -3.1391 hc      2  FDE        0.0257
     56 H14        -5.9350    3.2602   -2.0791 ho      2  FDE        0.2105
     57 H15         1.7650    1.3402   -1.7891 ho      2  FDE        0.2106
     58 H16         2.4050    2.9102   -5.5991 h4      2  FDE        0.0902
     59 H17         0.4650    1.3102   -6.6691 ha      2  FDE        0.0645
     60 H18        -1.6950    1.6502   -5.0391 ha      2  FDE        0.0648
     61 O          -2.2660   -5.4718    0.4569 os      3  FDE       -0.3212
     62 C          -1.2540   -6.1038    1.1409 cc      3  FDE        0.0455
     63 C3         -1.1230   -5.6888    2.4469 cd      3  FDE       -0.0364
     64 C4         -2.7680   -4.6348    1.4249 cc      3  FDE        0.0725
     65 C5         -2.1350   -4.7268    2.6399 cd      3  FDE       -0.0322
     66 C6         -3.9660   -3.7648    1.1409 c3      3  FDE        0.0457
     67 N          -3.9900   -2.5108    1.9379 n3      3  FDE       -0.2919
     68 H          -4.8560   -4.3758    1.3629 h1      3  FDE        0.0503
     69 H1         -4.0100   -3.5348    0.0649 h1      3  FDE        0.0503
     70 C7         -5.3400   -2.1898    2.4469 c3      3  FDE        0.0245
     71 C8         -3.3000   -1.3508    1.3089 c3      3  FDE        0.0261
     72 C9         -1.8160   -1.5858    0.9159 c3      3  FDE        0.0794
     73 H2         -3.2990   -0.5148    2.0199 h1      3  FDE        0.0458
     74 H3         -3.8550   -1.0238    0.4209 h1      3  FDE        0.0458
     75 C1         -1.0380   -0.2468    0.8499 c3      3  FDE        0.0261
     76 H4         -1.4830    0.4322    0.1099 h1      3  FDE        0.0458
     77 H5         -1.0460    0.2422    1.8319 h1      3  FDE        0.0458
     78 O1         -1.7360   -2.2008   -0.3761 oh      3  FDE       -0.3905
     79 H7         -1.3410   -2.2158    1.6709 h1      3  FDE        0.0628
     80 C10        -5.3730   -1.1588    3.5969 c3      3  FDE        0.0639
     81 H8         -5.8060   -3.1178    2.8319 h1      3  FDE        0.0458
     82 H9         -5.9710   -1.8278    1.6219 h1      3  FDE        0.0458
     83 O2         -6.7150   -0.9728    4.0299 oh      3  FDE       -0.3921
     84 C2         -4.5050   -1.5938    4.8079 c3      3  FDE       -0.0377
     85 H10        -4.9920   -0.1928    3.2349 h1      3  FDE        0.0611
     86 H11        -4.8200   -2.5768    5.1829 hc      3  FDE        0.0257
     87 H12        -4.5910   -0.8688    5.6219 hc      3  FDE        0.0257
     88 H13        -3.4470   -1.6608    4.5229 hc      3  FDE        0.0257
     89 H14        -7.0240   -1.8298    4.3949 ho      3  FDE        0.2105
     90 H15        -0.8370   -2.5538   -0.4801 ho      3  FDE        0.2106
     91 H16        -0.6900   -6.8358    0.5809 h4      3  FDE        0.0902
     92 H17        -0.4160   -6.0428    3.1769 ha      3  FDE        0.0645
     93 H18        -2.3630   -4.1788    3.5479 ha      3  FDE        0.0648
@<TRIPOS>BOND
     1     1     2    1
     2     2     3    1
     3     2     4    1
     4     2     5    1
     5     3     6    1
     6     3     7    2
     7     6     8    1
     8     8     9    2
     9     7     9    1
    10     8    10    1
    11    10    11    1
    12    10    12    1
    13    10    13    1
    14    11    14    2
    15    14    15    1
    16    11    16    1
    17    16    17    1
    18    15    17    2
    19    17    18    1
    20    18    19    1
    21    18    20    1
    22    18    21    1
    23    19    22    1
    24    19    23    1
    25     7    24    1
    26     9    25    1
    27    14    26    1
    28    15    27    1
    29    28    29    1
    30    29    30    2
    31    28    31    1
    32    31    32    2
    33    30    32    1
    34    31    33    1
    35    33    34    1
    36    33    35    1
    37    33    36    1
    38    34    37    1
    39    34    38    1
    40    38    39    1
    41    38    40    1
    42    38    41    1
    43    39    42    1
    44    42    43    1
    45    42    44    1
    46    39    45    1
    47    39    46    1
    48    37    47    1
    49    37    48    1
    50    37    49    1
    51    47    50    1
    52    47    51    1
    53    47    52    1
    54    51    53    1
    55    51    54    1
    56    51    55    1
    57    50    56    1
    58    45    57    1
    59    29    58    1
    60    30    59    1
    61    32    60    1
    62     1    42    1
    63    61    62    1
    64    62    63    2
    65    61    64    1
    66    64    65    2
    67    63    65    1
    68    64    66    1
    69    66    67    1
    70    66    68    1
    71    66    69    1
    72    67    70    1
    73    67    71    1
    74    71    72    1
    75    71    73    1
    76    71    74    1
    77    72    75    1
    78    75    76    1
    79    75    77    1
    80    72    78    1
    81    72    79    1
    82    70    80    1
    83    70    81    1
    84    70    82    1
    85    80    83    1
    86    80    84    1
    87    80    85    1
    88    84    86    1
    89    84    87    1
    90    84    88    1
    91    83    89    1
    92    78    90    1
    93    62    91    1
    94    63    92    1
    95    65    93    1
    96     1    75    1
@<TRIPOS>SUBSTRUCTURE
     1 DFA          1 RESIDUE
     2 FDE          1 RESIDUE
     3 FDE          1 RESIDUE