@<TRIPOS>MOLECULE
DFAFDE2
    93    96  3  0  0
SMALL
gas

@<TRIPOS>ATOM
      1 N1         -0.0488   -0.4210    0.6998 n3      1  DFA       -0.2918
      2 C           0.6512    0.8690    0.7998 c3      1  DFA        0.0457
      3 C1          2.1012    0.8090    0.3898 cc      1  DFA        0.0730
      4 H           0.6012    1.2290    1.8298 h1      1  DFA        0.0503
      5 H1          0.1512    1.6090    0.1698 h1      1  DFA        0.0503
      6 O           2.9512    1.8090    0.7798 os      1  DFA       -0.3174
      7 C2          2.6512   -0.1110   -0.4802 cd      1  DFA       -0.0319
      8 C3          4.0912    1.4690    0.1098 cc      1  DFA        0.0654
      9 C4          3.9912    0.3390   -0.6702 cd      1  DFA       -0.0327
     10 C5          5.2912    2.3890    0.1198 c3      1  DFA        0.0418
     11 C6          6.6112    1.7090    0.3198 cc      1  DFA        0.0654
     12 H2          5.1512    3.1290    0.9198 hc      1  DFA        0.0409
     13 H3          5.3112    2.9590   -0.8102 hc      1  DFA        0.0409
     14 C7          6.8512    0.6690    1.1898 cd      1  DFA       -0.0327
     15 C8          8.2512    0.4490    1.1298 cd      1  DFA       -0.0319
     16 O1          7.7312    2.1890   -0.3102 os      1  DFA       -0.3174
     17 C9          8.7012    1.3790    0.2198 cc      1  DFA        0.0725
     18 C10        10.1512    1.6190   -0.1302 c3      1  DFA        0.0403
     19 N2         10.9812    0.4090   -0.0202 n3      1  DFA       -0.3248
     20 H4         10.5512    2.3990    0.5298 h1      1  DFA        0.0498
     21 H5         10.2112    1.9990   -1.1602 h1      1  DFA        0.0498
     22 H8         10.9812    0.0890    0.9498 hn      1  DFA        0.1188
     23 H9         11.9412    0.6390   -0.2502 hn      1  DFA        0.1188
     24 H10         2.1712   -0.9510   -0.9502 ha      1  DFA        0.0648
     25 H11         4.7412   -0.1010   -1.3202 ha      1  DFA        0.0648
     26 H12         6.1312    0.1590    1.8198 ha      1  DFA        0.0648
     27 H13         8.8312   -0.2710    1.6898 ha      1  DFA        0.0648
     28 O          -2.4588   -5.3910    0.1598 os      2  FDE       -0.3212
     29 C          -1.4288   -6.0710    0.7698 cc      2  FDE        0.0455
     30 C3         -1.3788   -5.8710    2.1298 cd      2  FDE       -0.0364
     31 C4         -3.0488   -4.7610    1.2198 cc      2  FDE        0.0725
     32 C5         -2.4588   -5.0110    2.4298 cd      2  FDE       -0.0322
     33 C6         -4.2888   -3.9210    1.0198 c3      2  FDE        0.0457
     34 N          -4.3488   -2.7610    1.9498 n3      2  FDE       -0.2919
     35 H          -5.1388   -4.5910    1.1998 h1      2  FDE        0.0503
     36 H1         -4.3588   -3.5810   -0.0202 h1      2  FDE        0.0503
     37 C7         -5.7188   -2.5410    2.4698 c3      2  FDE        0.0245
     38 C8         -3.6788   -1.5210    1.4698 c3      2  FDE        0.0261
     39 C9         -2.2088   -1.6710    0.9898 c3      2  FDE        0.0794
     40 H2         -3.6788   -0.7910    2.2898 h1      2  FDE        0.0458
     41 H3         -4.2688   -1.0810    0.6498 h1      2  FDE        0.0458
     42 C1         -1.4688   -0.3210    1.0998 c3      2  FDE        0.0261
     43 H4         -1.9788    0.4190    0.4698 h1      2  FDE        0.0458
     44 H5         -1.5188    0.0290    2.1398 h1      2  FDE        0.0458
     45 O1         -2.1788   -2.1110   -0.3702 oh      2  FDE       -0.3905
     46 H7         -1.6988   -2.3910    1.6398 h1      2  FDE        0.0628
     47 C10        -5.7988   -1.6310    3.7198 c3      2  FDE        0.0639
     48 H8         -6.1688   -3.5110    2.7398 h1      2  FDE        0.0458
     49 H9         -6.3488   -2.1110    1.6698 h1      2  FDE        0.0458
     50 O2         -7.1588   -1.5210    4.1298 oh      2  FDE       -0.3921
     51 C2         -4.9588   -2.1710    4.8898 c3      2  FDE       -0.0377
     52 H10        -5.4388   -0.6310    3.4598 h1      2  FDE        0.0611
     53 H11        -5.2588   -3.1910    5.1498 hc      2  FDE        0.0257
     54 H12        -5.0888   -1.5310    5.7798 hc      2  FDE        0.0257
     55 H13        -3.8888   -2.1810    4.6398 hc      2  FDE        0.0257
     56 H14        -7.4588   -2.4110    4.3998 ho      2  FDE        0.2105
     57 H15        -1.3088   -2.5110   -0.5202 ho      2  FDE        0.2106
     58 H16        -0.7988   -6.6610    0.1298 h4      2  FDE        0.0902
     59 H17        -0.6688   -6.3010    2.8298 ha      2  FDE        0.0645
     60 H18        -2.7488   -4.6410    3.3998 ha      2  FDE        0.0648
     61 O          -3.0508    1.2090   -5.0492 os      3  FDE       -0.3212
     62 C          -4.3338    0.9070   -4.6572 cc      3  FDE        0.0455
     63 C3         -4.6408    1.3320   -3.3852 cd      3  FDE       -0.0364
     64 C4         -2.5728    1.8600   -3.9382 cc      3  FDE        0.0725
     65 C5         -3.4798    1.9780   -2.9132 cd      3  FDE       -0.0322
     66 C6         -1.1828    2.4450   -3.9292 c3      3  FDE        0.0457
     67 N          -0.5718    2.5010   -2.5762 n3      3  FDE       -0.2919
     68 H          -1.2688    3.4590   -4.3532 h1      3  FDE        0.0503
     69 H1         -0.5388    1.8770   -4.6182 h1      3  FDE        0.0503
     70 C7          0.1552    3.7650   -2.3362 c3      3  FDE        0.0245
     71 C8          0.1972    1.2880   -2.1822 c3      3  FDE        0.0261
     72 C9         -0.5848   -0.0520   -2.2482 c3      3  FDE        0.0794
     73 H2          0.5202    1.4010   -1.1392 h1      3  FDE        0.0458
     74 H3          1.1012    1.2030   -2.7962 h1      3  FDE        0.0458
     75 C1          0.0352   -1.1070   -1.2972 c3      3  FDE        0.0261
     76 H4          1.0822   -1.3100   -1.5602 h1      3  FDE        0.0458
     77 H5         -0.5268   -2.0460   -1.3572 h1      3  FDE        0.0458
     78 O1         -0.5418   -0.5850   -3.5782 oh      3  FDE       -0.3905
     79 H7         -1.6168    0.1190   -1.9372 h1      3  FDE        0.0628
     80 C10         0.4582    4.0690   -0.8522 c3      3  FDE        0.0639
     81 H8         -0.4538    4.6060   -2.7192 h1      3  FDE        0.0458
     82 H9          1.0992    3.7630   -2.9012 h1      3  FDE        0.0458
     83 O2          1.1122    5.3270   -0.7482 oh      3  FDE       -0.3921
     84 C2         -0.8248    4.0910    0.0218 c3      3  FDE       -0.0377
     85 H10         1.1312    3.2980   -0.4492 h1      3  FDE        0.0611
     86 H11        -1.5498    4.8200   -0.3652 hc      3  FDE        0.0257
     87 H12        -0.5808    4.3590    1.0538 hc      3  FDE        0.0257
     88 H13        -1.3048    3.1040    0.0308 hc      3  FDE        0.0257
     89 H14         0.4822    6.0090   -1.0652 ho      3  FDE        0.2105
     90 H15        -1.2298   -1.2700   -3.6442 ho      3  FDE        0.2106
     91 H16        -4.9378    0.3770   -5.3822 h4      3  FDE        0.0902
     92 H17        -5.5788    1.2220   -2.8672 ha      3  FDE        0.0645
     93 H18        -3.3338    2.4590   -1.9522 ha      3  FDE        0.0648
@<TRIPOS>BOND
     1     1     2    1
     2     2     3    1
     3     2     4    1
     4     2     5    1
     5     3     6    1
     6     3     7    2
     7     6     8    1
     8     8     9    2
     9     7     9    1
    10     8    10    1
    11    10    11    1
    12    10    12    1
    13    10    13    1
    14    11    14    2
    15    14    15    1
    16    11    16    1
    17    16    17    1
    18    15    17    2
    19    17    18    1
    20    18    19    1
    21    18    20    1
    22    18    21    1
    23    19    22    1
    24    19    23    1
    25     7    24    1
    26     9    25    1
    27    14    26    1
    28    15    27    1
    29    28    29    1
    30    29    30    2
    31    28    31    1
    32    31    32    2
    33    30    32    1
    34    31    33    1
    35    33    34    1
    36    33    35    1
    37    33    36    1
    38    34    37    1
    39    34    38    1
    40    38    39    1
    41    38    40    1
    42    38    41    1
    43    39    42    1
    44    42    43    1
    45    42    44    1
    46    39    45    1
    47    39    46    1
    48    37    47    1
    49    37    48    1
    50    37    49    1
    51    47    50    1
    52    47    51    1
    53    47    52    1
    54    51    53    1
    55    51    54    1
    56    51    55    1
    57    50    56    1
    58    45    57    1
    59    29    58    1
    60    30    59    1
    61    32    60    1
    62     1    42    1
    63    61    62    1
    64    62    63    2
    65    61    64    1
    66    64    65    2
    67    63    65    1
    68    64    66    1
    69    66    67    1
    70    66    68    1
    71    66    69    1
    72    67    70    1
    73    67    71    1
    74    71    72    1
    75    71    73    1
    76    71    74    1
    77    72    75    1
    78    75    76    1
    79    75    77    1
    80    72    78    1
    81    72    79    1
    82    70    80    1
    83    70    81    1
    84    70    82    1
    85    80    83    1
    86    80    84    1
    87    80    85    1
    88    84    86    1
    89    84    87    1
    90    84    88    1
    91    83    89    1
    92    78    90    1
    93    62    91    1
    94    63    92    1
    95    65    93    1
    96     1    75    1
@<TRIPOS>SUBSTRUCTURE
     1 DFA          1 RESIDUE
     2 FDE          1 RESIDUE
     3 FDE          1 RESIDUE