@<TRIPOS>MOLECULE
DFAFDE-3
    61    63  2  0  0
SMALL
gas

@<TRIPOS>ATOM
      1 N1        -10.8761   -1.1521    1.5680 n3      1  DFA       -0.3248
      2 C         -10.2061    0.1379    1.7880 c3      1  DFA        0.0403
      3 C1         -8.7661    0.1479    1.3580 cc      1  DFA        0.0725
      4 H         -10.2661    0.4079    2.8480 h1      1  DFA        0.0498
      5 H1        -10.7361    0.9179    1.2280 h1      1  DFA        0.0498
      6 O          -7.9461    1.1679    1.7580 os      1  DFA       -0.3174
      7 C2         -8.1661   -0.7721    0.5380 cd      1  DFA       -0.0319
      8 C3         -6.7761    0.8379    1.1180 cc      1  DFA        0.0654
      9 C4         -6.8361   -0.3021    0.3680 cd      1  DFA       -0.0327
     10 C5         -5.5861    1.7579    1.1980 c3      1  DFA        0.0418
     11 C6         -4.2661    1.0579    1.3880 cc      1  DFA        0.0654
     12 H2         -5.7261    2.4679    2.0180 hc      1  DFA        0.0409
     13 H3         -5.5461    2.3579    0.2780 hc      1  DFA        0.0409
     14 C7         -4.0661   -0.0321    2.1980 cd      1  DFA       -0.0327
     15 C8         -2.6661   -0.2721    2.1380 cd      1  DFA       -0.0319
     16 O1         -3.1261    1.5579    0.8080 os      1  DFA       -0.3174
     17 C9         -2.1761    0.6979    1.2980 cc      1  DFA        0.0727
     18 C10        -0.7261    0.9279    0.9680 c3      1  DFA        0.0429
     19 N2          0.0939   -0.2821    1.1180 n3      1  DFA       -0.3081
     20 H4         -0.3361    1.7179    1.6280 h1      1  DFA        0.0501
     21 H5         -0.6461    1.2879   -0.0620 h1      1  DFA        0.0501
     22 H6        -11.8561   -1.0821    1.8580 hn      1  DFA        0.1188
     23 H7        -10.8761   -1.3721    0.5780 hn      1  DFA        0.1188
     24 H8          0.0739   -0.5921    2.0880 hn      1  DFA        0.1227
     25 H10        -8.6161   -1.6521    0.0780 ha      1  DFA        0.0648
     26 H11        -6.0561   -0.7521   -0.2420 ha      1  DFA        0.0648
     27 H12        -4.7961   -0.5721    2.7880 ha      1  DFA        0.0648
     28 H13        -2.1061   -1.0421    2.6580 ha      1  DFA        0.0648
     29 O           7.4269    1.5589   -2.2780 os      2  FDE       -0.3212
     30 C           7.0059    2.5099   -3.1770 cc      2  FDE        0.0455
     31 C5          5.6629    2.7989   -3.0920 cd      2  FDE       -0.0364
     32 C6          6.2569    1.2729   -1.6160 cc      2  FDE        0.0725
     33 C7          5.1699    1.9909   -2.0480 cd      2  FDE       -0.0322
     34 C8          6.2449    0.2979   -0.4660 c3      2  FDE        0.0457
     35 N           4.9449   -0.4021   -0.2980 n3      2  FDE       -0.2919
     36 H           6.4869    0.8779    0.4380 h1      2  FDE        0.0503
     37 H1          7.0589   -0.4321   -0.5920 h1      2  FDE        0.0503
     38 C9          4.5459   -0.5211    1.1210 c3      2  FDE        0.0261
     39 C10         4.8089   -1.6731   -1.0620 c3      2  FDE        0.0245
     40 C3          5.0449   -1.5631   -2.5930 c3      2  FDE        0.0639
     41 H2          3.7859   -2.0501   -0.9370 h1      2  FDE        0.0458
     42 H3          5.4889   -2.4301   -0.6510 h1      2  FDE        0.0458
     43 C1          4.3259   -2.7071   -3.3520 c3      2  FDE       -0.0377
     44 H4          4.6889   -3.6901   -3.0210 hc      2  FDE        0.0257
     45 H5          4.5039   -2.6161   -4.4290 hc      2  FDE        0.0257
     46 H6          3.2439   -2.6511   -3.1800 hc      2  FDE        0.0257
     47 O1          6.4449   -1.6571   -2.8860 oh      2  FDE       -0.3921
     48 H7          4.6419   -0.6141   -2.9500 h1      2  FDE        0.0611
     49 C4          3.0559   -0.8551    1.3530 c3      2  FDE        0.0791
     50 H8          4.7439    0.4429    1.6290 h1      2  FDE        0.0458
     51 H9          5.1659   -1.2821    1.6170 h1      2  FDE        0.0458
     52 O2          2.7889   -0.8941    2.7480 oh      2  FDE       -0.3905
     53 C2          2.1069    0.1739    0.6820 c3      2  FDE        0.0229
     54 H10         2.8329   -1.8471    0.9330 h1      2  FDE        0.0628
     55 H11         2.3189    1.1919    1.0390 h1      2  FDE        0.0456
     56 H12         2.2309    0.1629   -0.4080 h1      2  FDE        0.0456
     57 H14         2.9459    0.0089    3.0990 ho      2  FDE        0.2106
     58 H15         6.5789   -1.3411   -3.7960 ho      2  FDE        0.2105
     59 H16         7.7669    2.9089   -3.8340 h4      2  FDE        0.0902
     60 H17         5.1099    3.5129   -3.6790 ha      2  FDE        0.0645
     61 H18         4.1539    1.9449   -1.6710 ha      2  FDE        0.0648
@<TRIPOS>BOND
     1     1     2    1
     2     2     3    1
     3     2     4    1
     4     2     5    1
     5     3     6    1
     6     3     7    2
     7     6     8    1
     8     8     9    2
     9     7     9    1
    10     8    10    1
    11    10    11    1
    12    10    12    1
    13    10    13    1
    14    11    14    2
    15    14    15    1
    16    11    16    1
    17    16    17    1
    18    15    17    2
    19    17    18    1
    20    18    19    1
    21    18    20    1
    22    18    21    1
    23     1    22    1
    24     1    23    1
    25    19    24    1
    26     7    25    1
    27     9    26    1
    28    14    27    1
    29    15    28    1
    30    29    30    1
    31    30    31    2
    32    29    32    1
    33    32    33    2
    34    31    33    1
    35    32    34    1
    36    34    35    1
    37    34    36    1
    38    34    37    1
    39    35    38    1
    40    35    39    1
    41    39    40    1
    42    39    41    1
    43    39    42    1
    44    40    43    1
    45    43    44    1
    46    43    45    1
    47    43    46    1
    48    40    47    1
    49    40    48    1
    50    38    49    1
    51    38    50    1
    52    38    51    1
    53    49    52    1
    54    49    53    1
    55    49    54    1
    56    53    55    1
    57    53    56    1
    58    52    57    1
    59    47    58    1
    60    30    59    1
    61    31    60    1
    62    33    61    1
    63    19    53    1
@<TRIPOS>SUBSTRUCTURE
     1 DFA          1 RESIDUE
     2 FDE          1 RESIDUE
