@<TRIPOS>MOLECULE
DFAFDE2-1
    93    96  3  0  0
SMALL
gas

@<TRIPOS>ATOM
      1 N1         -0.6489    1.5479    1.0991 n3      1  DFA       -0.2918
      2 C           0.0511    2.8379    1.1991 c3      1  DFA        0.0457
      3 C1          1.5001    2.7779    0.7891 cc      1  DFA        0.0730
      4 H           0.0011    3.2079    2.2291 h1      1  DFA        0.0503
      5 H1         -0.4499    3.5779    0.5591 h1      1  DFA        0.0503
      6 O           2.3501    3.7779    1.1791 os      1  DFA       -0.3174
      7 C2          2.0501    1.8579   -0.0709 cd      1  DFA       -0.0319
      8 C3          3.4901    3.4379    0.5091 cc      1  DFA        0.0654
      9 C4          3.3901    2.2979   -0.2609 cd      1  DFA       -0.0327
     10 C5          4.6811    4.3579    0.5191 c3      1  DFA        0.0418
     11 C6          6.0111    3.6779    0.7191 cc      1  DFA        0.0654
     12 H2          4.5511    5.0979    1.3191 hc      1  DFA        0.0409
     13 H3          4.7001    4.9279   -0.4109 hc      1  DFA        0.0409
     14 C7          6.2501    2.6379    1.5891 cd      1  DFA       -0.0327
     15 C8          7.6511    2.4179    1.5191 cd      1  DFA       -0.0319
     16 O1          7.1301    4.1579    0.0891 os      1  DFA       -0.3174
     17 C9          8.1011    3.3479    0.6191 cc      1  DFA        0.0725
     18 C10         9.5501    3.5879    0.2691 c3      1  DFA        0.0403
     19 N2         10.3801    2.3779    0.3891 n3      1  DFA       -0.3248
     20 H4          9.9501    4.3679    0.9291 h1      1  DFA        0.0498
     21 H5          9.6011    3.9679   -0.7609 h1      1  DFA        0.0498
     22 H8         10.3801    2.0679    1.3491 hn      1  DFA        0.1188
     23 H9         11.3411    2.6079    0.1491 hn      1  DFA        0.1188
     24 H10         1.5711    1.0179   -0.5509 ha      1  DFA        0.0648
     25 H11         4.1411    1.8679   -0.9109 ha      1  DFA        0.0648
     26 H12         5.5301    2.1279    2.2191 ha      1  DFA        0.0648
     27 H13         8.2201    1.6979    2.0891 ha      1  DFA        0.0648
     28 O          -3.0499   -3.4321    0.5691 os      2  FDE       -0.3212
     29 C          -2.0299   -4.1021    1.1991 cc      2  FDE        0.0455
     30 C5         -1.9799   -3.9021    2.5491 cd      2  FDE       -0.0364
     31 C6         -3.6389   -2.7921    1.6291 cc      2  FDE        0.0725
     32 C7         -3.0589   -3.0421    2.8491 cd      2  FDE       -0.0322
     33 C8         -4.8799   -1.9621    1.4291 c3      2  FDE        0.0457
     34 N          -4.9489   -0.7921    2.3491 n3      2  FDE       -0.2919
     35 H          -5.7389   -2.6321    1.5991 h1      2  FDE        0.0503
     36 H1         -4.9489   -1.6321    0.3891 h1      2  FDE        0.0503
     37 C9         -6.3299   -0.5721    2.8591 c3      2  FDE        0.0245
     38 C10        -4.2899    0.4479    1.8691 c3      2  FDE        0.0261
     39 C3         -2.8089    0.2979    1.3991 c3      2  FDE        0.0794
     40 H2         -4.2899    1.1779    2.6791 h1      2  FDE        0.0458
     41 H3         -4.8699    0.8779    1.0491 h1      2  FDE        0.0458
     42 C1         -2.0699    1.6479    1.4991 c3      2  FDE        0.0261
     43 H4         -2.5789    2.3779    0.8691 h1      2  FDE        0.0458
     44 H5         -2.1299    1.9979    2.5391 h1      2  FDE        0.0458
     45 O1         -2.7799   -0.1421    0.0391 oh      2  FDE       -0.3905
     46 H7         -2.2999   -0.4221    2.0491 h1      2  FDE        0.0628
     47 C4         -6.4099    0.3479    4.1091 c3      2  FDE        0.0639
     48 H8         -6.7689   -1.5421    3.1391 h1      2  FDE        0.0458
     49 H9         -6.9489   -0.1521    2.0591 h1      2  FDE        0.0458
     50 O2         -7.7689    0.4579    4.5091 oh      2  FDE       -0.3921
     51 C2         -5.5689   -0.1821    5.2891 c3      2  FDE       -0.0377
     52 H10        -6.0499    1.3479    3.8391 h1      2  FDE        0.0611
     53 H11        -5.8699   -1.2021    5.5591 hc      2  FDE        0.0257
     54 H12        -5.6989    0.4479    6.1691 hc      2  FDE        0.0257
     55 H13        -4.4999   -0.1921    5.0391 hc      2  FDE        0.0257
     56 H14        -8.0689   -0.4321    4.7891 ho      2  FDE        0.2105
     57 H15        -1.8989   -0.5521   -0.1109 ho      2  FDE        0.2106
     58 H16        -1.3889   -4.7021    0.5591 h4      2  FDE        0.0902
     59 H17        -1.2699   -4.3221    3.2591 ha      2  FDE        0.0645
     60 H18        -3.3599   -2.6621    3.8191 ha      2  FDE        0.0648
     61 O          -1.1929   -2.6221   -6.0469 os      3  FDE       -0.3212
     62 C          -2.4969   -3.0481   -5.9399 cc      3  FDE        0.0455
     63 C5         -3.1449   -2.5761   -4.8209 cd      3  FDE       -0.0364
     64 C6         -1.0669   -1.8451   -4.9209 cc      3  FDE        0.0725
     65 C7         -2.2029   -1.7661   -4.1539 cd      3  FDE       -0.0322
     66 C8          0.2131   -1.0991   -4.6419 c3      3  FDE        0.0457
     67 N           0.4681   -0.8791   -3.1949 n3      3  FDE       -0.2919
     68 H           0.1341   -0.1341   -5.1679 h1      3  FDE        0.0503
     69 H1          1.0591   -1.6321   -5.1029 h1      3  FDE        0.0503
     70 C9          0.9861    0.4759   -2.9119 c3      3  FDE        0.0261
     71 C10         1.2341   -1.9621   -2.5179 c3      3  FDE        0.0245
     72 C3          0.6281   -3.3871   -2.6389 c3      3  FDE        0.0639
     73 H2          1.2811   -1.7401   -1.4439 h1      3  FDE        0.0458
     74 H3          2.2641   -1.9811   -2.8929 h1      3  FDE        0.0458
     75 C1          1.0991   -4.2941   -1.4729 c3      3  FDE       -0.0377
     76 H4          2.1941   -4.3881   -1.4629 hc      3  FDE        0.0257
     77 H5          0.6661   -5.2941   -1.5739 hc      3  FDE        0.0257
     78 H6          0.7701   -3.8751   -0.5139 hc      3  FDE        0.0257
     79 O1          1.0461   -4.0011   -3.8649 oh      3  FDE       -0.3921
     80 H7         -0.4599   -3.3191   -2.5959 h1      3  FDE        0.0611
     81 C4          0.8861    0.9139   -1.4329 c3      3  FDE        0.0794
     82 H8          0.4081    1.2109   -3.5059 h1      3  FDE        0.0458
     83 H9          2.0341    0.5479   -3.2369 h1      3  FDE        0.0458
     84 O2          1.3681    2.2459   -1.2989 oh      3  FDE       -0.3905
     85 C2         -0.5669    0.8429   -0.8909 c3      3  FDE        0.0261
     86 H10         1.5131    0.2579   -0.8129 h1      3  FDE        0.0628
     87 H11        -1.2439    1.4519   -1.5049 h1      3  FDE        0.0458
     88 H12        -0.9339   -0.1911   -0.9019 h1      3  FDE        0.0458
     89 H14         0.7691    2.8249   -1.8179 ho      3  FDE        0.2106
     90 H15         0.4681   -4.7661   -4.0249 ho      3  FDE        0.2105
     91 H16        -2.8499   -3.6931   -6.7319 h4      3  FDE        0.0902
     92 H17        -4.1649   -2.7611   -4.5299 ha      3  FDE        0.0645
     93 H18        -2.3449   -1.2071   -3.2349 ha      3  FDE        0.0648
@<TRIPOS>BOND
     1     1     2    1
     2     2     3    1
     3     2     4    1
     4     2     5    1
     5     3     6    1
     6     3     7    2
     7     6     8    1
     8     8     9    2
     9     7     9    1
    10     8    10    1
    11    10    11    1
    12    10    12    1
    13    10    13    1
    14    11    14    2
    15    14    15    1
    16    11    16    1
    17    16    17    1
    18    15    17    2
    19    17    18    1
    20    18    19    1
    21    18    20    1
    22    18    21    1
    23    19    22    1
    24    19    23    1
    25     7    24    1
    26     9    25    1
    27    14    26    1
    28    15    27    1
    29    28    29    1
    30    29    30    2
    31    28    31    1
    32    31    32    2
    33    30    32    1
    34    31    33    1
    35    33    34    1
    36    33    35    1
    37    33    36    1
    38    34    37    1
    39    34    38    1
    40    38    39    1
    41    38    40    1
    42    38    41    1
    43    39    42    1
    44    42    43    1
    45    42    44    1
    46    39    45    1
    47    39    46    1
    48    37    47    1
    49    37    48    1
    50    37    49    1
    51    47    50    1
    52    47    51    1
    53    47    52    1
    54    51    53    1
    55    51    54    1
    56    51    55    1
    57    50    56    1
    58    45    57    1
    59    29    58    1
    60    30    59    1
    61    32    60    1
    62     1    42    1
    63    61    62    1
    64    62    63    2
    65    61    64    1
    66    64    65    2
    67    63    65    1
    68    64    66    1
    69    66    67    1
    70    66    68    1
    71    66    69    1
    72    67    70    1
    73    67    71    1
    74    71    72    1
    75    71    73    1
    76    71    74    1
    77    72    75    1
    78    75    76    1
    79    75    77    1
    80    75    78    1
    81    72    79    1
    82    72    80    1
    83    70    81    1
    84    70    82    1
    85    70    83    1
    86    81    84    1
    87    81    85    1
    88    81    86    1
    89    85    87    1
    90    85    88    1
    91    84    89    1
    92    79    90    1
    93    62    91    1
    94    63    92    1
    95    65    93    1
    96     1    85    1
@<TRIPOS>SUBSTRUCTURE
     1 DFA          1 RESIDUE
     2 FDE          1 RESIDUE
     3 FDE          1 RESIDUE
