@<TRIPOS>MOLECULE
DFAFDE
    61    63  2  0  0
SMALL
gas

@<TRIPOS>ATOM
      1 N1         -0.4009    0.6919   -0.7900 n3      1  DFA       -0.3081
      2 C           0.2691    1.9819   -0.5700 c3      1  DFA        0.0429
      3 C1          1.7191    1.9919   -1.0000 cc      1  DFA        0.0727
      4 H           0.2091    2.2519    0.4900 h1      1  DFA        0.0501
      5 H1         -0.2609    2.7619   -1.1300 h1      1  DFA        0.0501
      6 O           2.5291    3.0119   -0.6000 os      1  DFA       -0.3174
      7 C2          2.3091    1.0719   -1.8300 cd      1  DFA       -0.0319
      8 C3          3.6991    2.6819   -1.2400 cc      1  DFA        0.0654
      9 C4          3.6391    1.5419   -1.9900 cd      1  DFA       -0.0327
     10 C5          4.8891    3.6019   -1.1600 c3      1  DFA        0.0418
     11 C6          6.2091    2.9019   -0.9700 cc      1  DFA        0.0654
     12 H2          4.7491    4.3119   -0.3400 hc      1  DFA        0.0409
     13 H3          4.9291    4.2019   -2.0800 hc      1  DFA        0.0409
     14 C7          6.4091    1.8119   -0.1500 cd      1  DFA       -0.0327
     15 C8          7.8091    1.5719   -0.2200 cd      1  DFA       -0.0319
     16 O1          7.3491    3.4019   -1.5500 os      1  DFA       -0.3174
     17 C9          8.2891    2.5419   -1.0600 cc      1  DFA        0.0725
     18 C10         9.7491    2.7619   -1.3900 c3      1  DFA        0.0403
     19 N2         10.5691    1.5519   -1.2400 n3      1  DFA       -0.3248
     20 H4         10.1391    3.5519   -0.7300 h1      1  DFA        0.0498
     21 H5          9.8191    3.1319   -2.4200 h1      1  DFA        0.0498
     22 H6         -0.4009    0.4719   -1.7800 hn      1  DFA        0.1227
     23 H8         10.5491    1.2519   -0.2700 hn      1  DFA        0.1188
     24 H9         11.5391    1.7719   -1.4600 hn      1  DFA        0.1188
     25 H10         1.8691    0.1919   -2.2800 ha      1  DFA        0.0648
     26 H11         4.4191    1.1019   -2.6000 ha      1  DFA        0.0648
     27 H12         5.6791    1.2719    0.4300 ha      1  DFA        0.0648
     28 H13         8.3691    0.8019    0.3100 ha      1  DFA        0.0648
     29 O          -3.2649   -4.4051   -1.0650 os      2  FDE       -0.3212
     30 C          -2.1929   -5.0201   -0.4620 cc      2  FDE        0.0455
     31 C3         -2.0619   -4.7231    0.8760 cd      2  FDE       -0.0364
     32 C4         -3.8039   -3.7041   -0.0130 cc      2  FDE        0.0725
     33 C5         -3.1379   -3.8641    1.1770 cd      2  FDE       -0.0322
     34 C6         -5.0699   -2.9051   -0.1910 c3      2  FDE        0.0457
     35 N          -5.1669   -1.7381    0.7240 n3      2  FDE       -0.2919
     36 H          -5.9059   -3.6001   -0.0150 h1      2  FDE        0.0503
     37 H1         -5.1549   -2.5781   -1.2390 h1      2  FDE        0.0503
     38 C7         -6.5249   -1.5711    1.2840 c3      2  FDE        0.0245
     39 C8         -4.5799   -0.4741    0.1990 c3      2  FDE        0.0261
     40 C9         -3.0919   -0.5571   -0.2390 c3      2  FDE        0.0791
     41 H2         -4.6239    0.2879    0.9880 h1      2  FDE        0.0458
     42 H3         -5.1779   -0.1071   -0.6440 h1      2  FDE        0.0458
     43 C1         -2.4169    0.8369   -0.1870 c3      2  FDE        0.0229
     44 H4         -2.9289    1.5479   -0.8510 h1      2  FDE        0.0456
     45 H5         -2.4389    1.2279    0.8380 h1      2  FDE        0.0456
     46 O1         -2.9979   -1.0381   -1.5850 oh      2  FDE       -0.3905
     47 H7         -2.5549   -1.2181    0.4430 h1      2  FDE        0.0628
     48 C10        -6.6079   -0.6591    2.5290 c3      2  FDE        0.0639
     49 H8         -6.9119   -2.5641    1.5850 h1      2  FDE        0.0458
     50 H9         -7.1999   -1.1801    0.5080 h1      2  FDE        0.0458
     51 O2         -7.9489   -0.6181    2.9990 oh      2  FDE       -0.3921
     52 C2         -5.6809   -1.1411    3.6770 c3      2  FDE       -0.0377
     53 H10        -6.3079    0.3619    2.2560 h1      2  FDE        0.0611
     54 H11        -5.9139   -2.1771    3.9610 hc      2  FDE        0.0257
     55 H12        -5.8019   -0.5051    4.5590 hc      2  FDE        0.0257
     56 H13        -4.6279   -1.1001    3.3700 hc      2  FDE        0.0257
     57 H14        -8.1849   -1.5271    3.2840 ho      2  FDE        0.2105
     58 H15        -2.0769   -1.3111   -1.7380 ho      2  FDE        0.2106
     59 H16        -1.5889   -5.6511   -1.1000 h4      2  FDE        0.0902
     60 H17        -1.3129   -5.0911    1.5570 ha      2  FDE        0.0645
     61 H18        -3.3839   -3.4241    2.1380 ha      2  FDE        0.0648
@<TRIPOS>BOND
     1     1     2    1
     2     2     3    1
     3     2     4    1
     4     2     5    1
     5     3     6    1
     6     3     7    2
     7     6     8    1
     8     8     9    2
     9     7     9    1
    10     8    10    1
    11    10    11    1
    12    10    12    1
    13    10    13    1
    14    11    14    2
    15    14    15    1
    16    11    16    1
    17    16    17    1
    18    15    17    2
    19    17    18    1
    20    18    19    1
    21    18    20    1
    22    18    21    1
    23     1    22    1
    24    19    23    1
    25    19    24    1
    26     7    25    1
    27     9    26    1
    28    14    27    1
    29    15    28    1
    30    29    30    1
    31    30    31    2
    32    29    32    1
    33    32    33    2
    34    31    33    1
    35    32    34    1
    36    34    35    1
    37    34    36    1
    38    34    37    1
    39    35    38    1
    40    35    39    1
    41    39    40    1
    42    39    41    1
    43    39    42    1
    44    40    43    1
    45    43    44    1
    46    43    45    1
    47    40    46    1
    48    40    47    1
    49    38    48    1
    50    38    49    1
    51    38    50    1
    52    48    51    1
    53    48    52    1
    54    48    53    1
    55    52    54    1
    56    52    55    1
    57    52    56    1
    58    51    57    1
    59    46    58    1
    60    30    59    1
    61    31    60    1
    62    33    61    1
    63     1    43    1
@<TRIPOS>SUBSTRUCTURE
     1 DFA          1 RESIDUE
     2 FDE          1 RESIDUE