@<TRIPOS>MOLECULE
DFAFDE-1
    61    63  2  0  0
SMALL
gas

@<TRIPOS>ATOM
      1 N1          0.1400   -0.0640   -0.4052 n3      1  DFA       -0.3081
      2 C           0.8000    1.2360   -0.1852 c3      1  DFA        0.0429
      3 C1          2.2500    1.2360   -0.6052 cc      1  DFA        0.0727
      4 H           0.7500    1.4960    0.8748 h1      1  DFA        0.0501
      5 H1          0.2800    2.0160   -0.7552 h1      1  DFA        0.0501
      6 O           3.0700    2.2560   -0.2152 os      1  DFA       -0.3174
      7 C2          2.8500    0.3160   -1.4352 cd      1  DFA       -0.0319
      8 C3          4.2400    1.9260   -0.8552 cc      1  DFA        0.0654
      9 C4          4.1800    0.7760   -1.6052 cd      1  DFA       -0.0327
     10 C5          5.4300    2.8460   -0.7752 c3      1  DFA        0.0418
     11 C6          6.7500    2.1360   -0.5852 cc      1  DFA        0.0654
     12 H2          5.2900    3.5560    0.0448 hc      1  DFA        0.0409
     13 H3          5.4700    3.4460   -1.6952 hc      1  DFA        0.0409
     14 C7          6.9600    1.0560    0.2248 cd      1  DFA       -0.0327
     15 C8          8.3500    0.8060    0.1648 cd      1  DFA       -0.0319
     16 O1          7.8900    2.6460   -1.1652 os      1  DFA       -0.3174
     17 C9          8.8400    1.7860   -0.6752 cc      1  DFA        0.0725
     18 C10        10.2900    2.0160   -1.0052 c3      1  DFA        0.0403
     19 N2         11.1100    0.8060   -0.8552 n3      1  DFA       -0.3248
     20 H4         10.6800    2.8060   -0.3452 h1      1  DFA        0.0498
     21 H5         10.3700    2.3760   -2.0352 h1      1  DFA        0.0498
     22 H6          0.1300   -0.2840   -1.3952 hn      1  DFA        0.1227
     23 H8         11.1000    0.5060    0.1248 hn      1  DFA        0.1188
     24 H9         12.0900    1.0260   -1.0652 hn      1  DFA        0.1188
     25 H10         2.4000   -0.5640   -1.8952 ha      1  DFA        0.0648
     26 H11         4.9600    0.3360   -2.2052 ha      1  DFA        0.0648
     27 H12         6.2200    0.5060    0.8048 ha      1  DFA        0.0648
     28 H13         8.9100    0.0460    0.6848 ha      1  DFA        0.0648
     29 O          -7.5060   -1.0130    2.6738 os      2  FDE       -0.3212
     30 C          -7.1700   -1.5150    3.9098 cc      2  FDE        0.0455
     31 C3         -5.8140   -1.5710    4.1378 cd      2  FDE       -0.0364
     32 C4         -6.2670   -0.7510    2.1408 cc      2  FDE        0.0725
     33 C5         -5.2150   -1.0500    2.9718 cd      2  FDE       -0.0322
     34 C6         -6.1350   -0.1150    0.7798 c3      2  FDE        0.0457
     35 N          -4.8830   -0.4850    0.0718 n3      2  FDE       -0.2919
     36 H          -6.1770    0.9750    0.9398 h1      2  FDE        0.0503
     37 H1         -7.0130   -0.3700    0.1668 h1      2  FDE        0.0503
     38 C7         -4.2620    0.6660   -0.6182 c3      2  FDE        0.0261
     39 C8         -4.9750   -1.7060   -0.7752 c3      2  FDE        0.0245
     40 C9         -5.4570   -2.9920   -0.0472 c3      2  FDE        0.0639
     41 H2         -3.9780   -1.9350   -1.1712 h1      2  FDE        0.0458
     42 H3         -5.6320   -1.5170   -1.6332 h1      2  FDE        0.0458
     43 C1         -4.9650   -4.2650   -0.7812 c3      2  FDE       -0.0377
     44 H4         -5.3410   -4.2970   -1.8132 hc      2  FDE        0.0257
     45 H5         -5.3140   -5.1610   -0.2572 hc      2  FDE        0.0257
     46 H6         -3.8680   -4.2880   -0.8012 hc      2  FDE        0.0257
     47 O1         -6.8880   -3.0340   -0.0122 oh      2  FDE       -0.3921
     48 H7         -5.0470   -3.0040    0.9638 h1      2  FDE        0.0611
     49 C10        -2.7840    0.4640   -1.0192 c3      2  FDE        0.0791
     50 H8         -4.2970    1.5460    0.0528 h1      2  FDE        0.0458
     51 H9         -4.8460    0.9190   -1.5152 h1      2  FDE        0.0458
     52 O2         -2.2900    1.6510   -1.6262 oh      2  FDE       -0.3905
     53 C2         -1.8860    0.1020    0.1938 c3      2  FDE        0.0229
     54 H10        -2.7110   -0.3530   -1.7522 h1      2  FDE        0.0628
     55 H11        -1.9550    0.8700    0.9768 h1      2  FDE        0.0456
     56 H12        -2.1910   -0.8580    0.6298 h1      2  FDE        0.0456
     57 H14        -2.3160    2.3570   -0.9462 ho      2  FDE        0.2106
     58 H15        -7.1490   -3.6980    0.6488 ho      2  FDE        0.2105
     59 H16        -7.9980   -1.8030    4.5428 h4      2  FDE        0.0902
     60 H17        -5.3150   -1.9120    5.0278 ha      2  FDE        0.0645
     61 H18        -4.1580   -0.9080    2.7758 ha      2  FDE        0.0648
@<TRIPOS>BOND
     1     1     2    1
     2     2     3    1
     3     2     4    1
     4     2     5    1
     5     3     6    1
     6     3     7    2
     7     6     8    1
     8     8     9    2
     9     7     9    1
    10     8    10    1
    11    10    11    1
    12    10    12    1
    13    10    13    1
    14    11    14    2
    15    14    15    1
    16    11    16    1
    17    16    17    1
    18    15    17    2
    19    17    18    1
    20    18    19    1
    21    18    20    1
    22    18    21    1
    23     1    22    1
    24    19    23    1
    25    19    24    1
    26     7    25    1
    27     9    26    1
    28    14    27    1
    29    15    28    1
    30    29    30    1
    31    30    31    2
    32    29    32    1
    33    32    33    2
    34    31    33    1
    35    32    34    1
    36    34    35    1
    37    34    36    1
    38    34    37    1
    39    35    38    1
    40    35    39    1
    41    39    40    1
    42    39    41    1
    43    39    42    1
    44    40    43    1
    45    43    44    1
    46    43    45    1
    47    43    46    1
    48    40    47    1
    49    40    48    1
    50    38    49    1
    51    38    50    1
    52    38    51    1
    53    49    52    1
    54    49    53    1
    55    49    54    1
    56    53    55    1
    57    53    56    1
    58    52    57    1
    59    47    58    1
    60    30    59    1
    61    31    60    1
    62    33    61    1
    63     1    53    1
@<TRIPOS>SUBSTRUCTURE
     1 DFA          1 RESIDUE
     2 FDE          1 RESIDUE