@<TRIPOS>MOLECULE
DFAFDE2-1
    93    96  3  0  0
SMALL
gas

@<TRIPOS>ATOM
      1 N1         -0.6450    1.5402    1.1008 n3      1  DFA       -0.2918
      2 C           0.0650    2.8302    1.1908 c3      1  DFA        0.0457
      3 C1          1.5150    2.7602    0.7808 cc      1  DFA        0.0730
      4 H           0.0150    3.2002    2.2208 h1      1  DFA        0.0503
      5 H1         -0.4350    3.5702    0.5508 h1      1  DFA        0.0503
      6 O           2.3650    3.7602    1.1708 os      1  DFA       -0.3174
      7 C2          2.0650    1.8402   -0.0792 cd      1  DFA       -0.0319
      8 C3          3.5050    3.4102    0.5008 cc      1  DFA        0.0654
      9 C4          3.3950    2.2802   -0.2692 cd      1  DFA       -0.0327
     10 C5          4.6950    4.3302    0.5108 c3      1  DFA        0.0418
     11 C6          6.0250    3.6502    0.7108 cc      1  DFA        0.0654
     12 H2          4.5650    5.0802    1.3108 hc      1  DFA        0.0409
     13 H3          4.7150    4.9002   -0.4292 hc      1  DFA        0.0409
     14 C7          6.2550    2.6202    1.5808 cd      1  DFA       -0.0327
     15 C8          7.6650    2.4002    1.5108 cd      1  DFA       -0.0319
     16 O1          7.1450    4.1402    0.0808 os      1  DFA       -0.3174
     17 C9          8.1150    3.3302    0.6108 cc      1  DFA        0.0725
     18 C10         9.5650    3.5702    0.2608 c3      1  DFA        0.0403
     19 N2         10.3950    2.3602    0.3808 n3      1  DFA       -0.3248
     20 H4          9.9550    4.3502    0.9208 h1      1  DFA        0.0498
     21 H5          9.6150    3.9502   -0.7692 h1      1  DFA        0.0498
     22 H8         10.3950    2.0502    1.3508 hn      1  DFA        0.1188
     23 H9         11.3550    2.5902    0.1508 hn      1  DFA        0.1188
     24 H10         1.5750    1.0002   -0.5492 ha      1  DFA        0.0648
     25 H11         4.1450    1.8402   -0.9192 ha      1  DFA        0.0648
     26 H12         5.5450    2.1002    2.2108 ha      1  DFA        0.0648
     27 H13         8.2350    1.6802    2.0808 ha      1  DFA        0.0648
     28 O          -3.0850   -3.4298    0.5908 os      2  FDE       -0.3212
     29 C          -2.0650   -4.0998    1.2108 cc      2  FDE        0.0455
     30 C5         -2.0150   -3.8998    2.5708 cd      2  FDE       -0.0364
     31 C6         -3.6750   -2.7798    1.6408 cc      2  FDE        0.0725
     32 C7         -3.0950   -3.0198    2.8608 cd      2  FDE       -0.0322
     33 C8         -4.9050   -1.9398    1.4408 c3      2  FDE        0.0457
     34 N          -4.9650   -0.7698    2.3508 n3      2  FDE       -0.2919
     35 H          -5.7650   -2.5998    1.6108 h1      2  FDE        0.0503
     36 H1         -4.9750   -1.6098    0.3908 h1      2  FDE        0.0503
     37 C9         -6.3350   -0.5298    2.8608 c3      2  FDE        0.0245
     38 C10        -4.2850    0.4702    1.8708 c3      2  FDE        0.0261
     39 C3         -2.8150    0.3002    1.4008 c3      2  FDE        0.0794
     40 H2         -4.2850    1.2002    2.6808 h1      2  FDE        0.0458
     41 H3         -4.8650    0.9002    1.0408 h1      2  FDE        0.0458
     42 C1         -2.0650    1.6502    1.5008 c3      2  FDE        0.0261
     43 H4         -2.5750    2.3802    0.8608 h1      2  FDE        0.0458
     44 H5         -2.1250    2.0102    2.5308 h1      2  FDE        0.0458
     45 O1         -2.7850   -0.1498    0.0408 oh      2  FDE       -0.3905
     46 H7         -2.3150   -0.4198    2.0508 h1      2  FDE        0.0628
     47 C4         -6.4150    0.3902    4.1008 c3      2  FDE        0.0639
     48 H8         -6.7850   -1.4898    3.1508 h1      2  FDE        0.0458
     49 H9         -6.9550   -0.1098    2.0608 h1      2  FDE        0.0458
     50 O2         -7.7750    0.5102    4.5108 oh      2  FDE       -0.3921
     51 C2         -5.5750   -0.1398    5.2908 c3      2  FDE       -0.0377
     52 H10        -6.0450    1.3902    3.8408 h1      2  FDE        0.0611
     53 H11        -5.8850   -1.1598    5.5608 hc      2  FDE        0.0257
     54 H12        -5.7050    0.5002    6.1708 hc      2  FDE        0.0257
     55 H13        -4.5150   -0.1598    5.0408 hc      2  FDE        0.0257
     56 H14        -8.0750   -0.3698    4.7908 ho      2  FDE        0.2105
     57 H15        -1.9050   -0.5598   -0.1092 ho      2  FDE        0.2106
     58 H16        -1.4350   -4.7098    0.5708 h4      2  FDE        0.0902
     59 H17        -1.3150   -4.3298    3.2708 ha      2  FDE        0.0645
     60 H18        -3.3850   -2.6398    3.8308 ha      2  FDE        0.0648
     61 O          -1.1890   -2.6298   -6.0452 os      3  FDE       -0.3212
     62 C          -2.4920   -3.0548   -5.9382 cc      3  FDE        0.0455
     63 C5         -3.1410   -2.5828   -4.8192 cd      3  FDE       -0.0364
     64 C6         -1.0630   -1.8518   -4.9192 cc      3  FDE        0.0725
     65 C7         -2.1990   -1.7738   -4.1522 cd      3  FDE       -0.0322
     66 C8          0.2180   -1.1068   -4.6412 c3      3  FDE        0.0457
     67 N           0.4720   -0.8858   -3.1932 n3      3  FDE       -0.2919
     68 H           0.1380   -0.1408   -5.1662 h1      3  FDE        0.0503
     69 H1          1.0630   -1.6398   -5.1012 h1      3  FDE        0.0503
     70 C9          0.9900    0.4692   -2.9102 c3      3  FDE        0.0261
     71 C10         1.2380   -1.9688   -2.5162 c3      3  FDE        0.0245
     72 C3          0.6330   -3.3948   -2.6372 c3      3  FDE        0.0639
     73 H2          1.2850   -1.7478   -1.4422 h1      3  FDE        0.0458
     74 H3          2.2690   -1.9878   -2.8912 h1      3  FDE        0.0458
     75 C1          1.1040   -4.3008   -1.4712 c3      3  FDE       -0.0377
     76 H4          2.1980   -4.3948   -1.4622 hc      3  FDE        0.0257
     77 H5          0.6700   -5.3018   -1.5722 hc      3  FDE        0.0257
     78 H6          0.7740   -3.8818   -0.5122 hc      3  FDE        0.0257
     79 O1          1.0510   -4.0078   -3.8632 oh      3  FDE       -0.3921
     80 H7         -0.4550   -3.3258   -2.5942 h1      3  FDE        0.0611
     81 C4          0.8910    0.9072   -1.4322 c3      3  FDE        0.0794
     82 H8          0.4120    1.2042   -3.5042 h1      3  FDE        0.0458
     83 H9          2.0380    0.5412   -3.2352 h1      3  FDE        0.0458
     84 O2          1.3720    2.2382   -1.2982 oh      3  FDE       -0.3905
     85 C2         -0.5620    0.8352   -0.8902 c3      3  FDE        0.0261
     86 H10         1.5180    0.2512   -0.8122 h1      3  FDE        0.0628
     87 H11        -1.2400    1.4452   -1.5032 h1      3  FDE        0.0458
     88 H12        -0.9300   -0.1988   -0.9002 h1      3  FDE        0.0458
     89 H14         0.7740    2.8172   -1.8172 ho      3  FDE        0.2106
     90 H15         0.4720   -4.7728   -4.0242 ho      3  FDE        0.2105
     91 H16        -2.8450   -3.7008   -6.7302 h4      3  FDE        0.0902
     92 H17        -4.1600   -2.7688   -4.5282 ha      3  FDE        0.0645
     93 H18        -2.3400   -1.2138   -3.2342 ha      3  FDE        0.0648
@<TRIPOS>BOND
     1     1     2    1
     2     2     3    1
     3     2     4    1
     4     2     5    1
     5     3     6    1
     6     3     7    2
     7     6     8    1
     8     8     9    2
     9     7     9    1
    10     8    10    1
    11    10    11    1
    12    10    12    1
    13    10    13    1
    14    11    14    2
    15    14    15    1
    16    11    16    1
    17    16    17    1
    18    15    17    2
    19    17    18    1
    20    18    19    1
    21    18    20    1
    22    18    21    1
    23    19    22    1
    24    19    23    1
    25     7    24    1
    26     9    25    1
    27    14    26    1
    28    15    27    1
    29    28    29    1
    30    29    30    2
    31    28    31    1
    32    31    32    2
    33    30    32    1
    34    31    33    1
    35    33    34    1
    36    33    35    1
    37    33    36    1
    38    34    37    1
    39    34    38    1
    40    38    39    1
    41    38    40    1
    42    38    41    1
    43    39    42    1
    44    42    43    1
    45    42    44    1
    46    39    45    1
    47    39    46    1
    48    37    47    1
    49    37    48    1
    50    37    49    1
    51    47    50    1
    52    47    51    1
    53    47    52    1
    54    51    53    1
    55    51    54    1
    56    51    55    1
    57    50    56    1
    58    45    57    1
    59    29    58    1
    60    30    59    1
    61    32    60    1
    62     1    42    1
    63    61    62    1
    64    62    63    2
    65    61    64    1
    66    64    65    2
    67    63    65    1
    68    64    66    1
    69    66    67    1
    70    66    68    1
    71    66    69    1
    72    67    70    1
    73    67    71    1
    74    71    72    1
    75    71    73    1
    76    71    74    1
    77    72    75    1
    78    75    76    1
    79    75    77    1
    80    75    78    1
    81    72    79    1
    82    72    80    1
    83    70    81    1
    84    70    82    1
    85    70    83    1
    86    81    84    1
    87    81    85    1
    88    81    86    1
    89    85    87    1
    90    85    88    1
    91    84    89    1
    92    79    90    1
    93    62    91    1
    94    63    92    1
    95    65    93    1
    96     1    85    1
@<TRIPOS>SUBSTRUCTURE
     1 DFA          1 RESIDUE
     2 FDE          1 RESIDUE
     3 FDE          1 RESIDUE