@<TRIPOS>MOLECULE
DFA
   61    63     1     0     0
SMALL
gas


@<TRIPOS>ATOM
      1 N1          -4.5390    -1.0800     0.1460 n3         1 DFA      -0.308136
      2 C           -3.6860     0.1040     0.1330 c3         1 DFA       0.042890
      3 C1          -2.2280    -0.2570     0.0870 cc         1 DFA       0.072722
      4 H           -3.8690     0.6950     1.0560 h1         1 DFA       0.050053
      5 H1          -3.9330     0.7350    -0.7490 h1         1 DFA       0.050053
      6 O           -1.2690     0.6380     0.0710 os         1 DFA      -0.317392
      7 C2          -1.6780    -1.5210     0.0570 cd         1 DFA      -0.031866
      8 C3          -0.1010     0.0320     0.0340 cc         1 DFA       0.065414
      9 C4          -0.3140    -1.3410     0.0230 cd         1 DFA      -0.032741
     10 C5           1.1700     0.8530     0.0110 c3         1 DFA       0.041833
     11 C6           2.5550     0.2430    -0.0070 cc         1 DFA       0.065413
     12 H2           1.1340     1.5070     0.9070 hc         1 DFA       0.040856
     13 H3           1.1020     1.5030    -0.8860 hc         1 DFA       0.040856
     14 C7           2.9820    -1.0800     0.0050 cd         1 DFA      -0.032741
     15 C8           4.3570    -1.0420    -0.0170 cd         1 DFA      -0.031874
     16 O1           3.6130     1.0260    -0.0330 os         1 DFA      -0.317401
     17 C9           4.7020     0.2930    -0.0390 cc         1 DFA       0.072502
     18 C10          6.0840     0.8810    -0.0680 c3         1 DFA       0.040287
     19 N2           7.1140    -0.1540    -0.0660 n3         1 DFA      -0.324821
     20 H4           6.2170     1.5410     0.8170 h1         1 DFA       0.049825
     21 H5           6.1850     1.4940    -0.9880 h1         1 DFA       0.049825
     22 H6          -5.5340    -0.7700     0.2250 hn         1 DFA       0.122722
     23 H8           7.0800    -0.6690     0.8440 hn         1 DFA       0.118783
     24 H9           8.0490     0.3100    -0.1290 hn         1 DFA       0.118783
     25 H10         -2.2000    -2.4690     0.0610 ha         1 DFA       0.064841
     26 H11          0.3830    -2.1530    -0.0080 ha         1 DFA       0.064804
     27 H12          2.4220    -1.9910     0.0290 ha         1 DFA       0.064804
     28 H13          5.0230    -1.8950    -0.0150 ha         1 DFA       0.064841
     29 O           -7.2770    -6.5590     0.3690 os         2 FDE      -0.321161
     30 C           -7.8890    -6.9260    -0.7340 cc         2 FDE       0.045538
     31 C3          -7.0450    -6.7530    -1.8120 cd         2 FDE      -0.036413
     32 C4          -6.0660    -6.1470     0.0640 cc         2 FDE       0.072549
     33 C5          -5.8690    -6.2540    -1.3010 cd         2 FDE      -0.032169
     34 C6          -5.0850    -5.6570     1.0930 c3         2 FDE       0.045676
     35 N           -3.8120    -5.2200     0.4600 n3         2 FDE      -0.291867
     36 H           -4.9440    -6.5090     1.7920 h1         2 FDE       0.050290
     37 H1          -5.5400    -4.8430     1.7000 h1         2 FDE       0.050290
     38 C7          -2.6520    -5.7910     1.1940 c3         2 FDE       0.024533
     39 C8          -3.7160    -3.7360     0.3530 c3         2 FDE       0.026065
     40 C9          -4.7200    -3.1080    -0.6420 c3         2 FDE       0.079097
     41 H2          -2.7200    -3.4620    -0.0420 h1         2 FDE       0.045830
     42 H3          -3.8130    -3.2620     1.3560 h1         2 FDE       0.045830
     43 C1          -4.4320    -1.6150    -0.8220 c3         2 FDE       0.022915
     44 H5          -5.1450    -1.1790    -1.5530 h1         2 FDE       0.045553
     45 H6          -3.4010    -1.4630    -1.2070 h1         2 FDE       0.045553
     46 O1          -6.0380    -3.2560    -0.1800 oh         2 FDE      -0.390474
     47 H7          -4.5900    -3.6150    -1.6260 h1         2 FDE       0.062772
     48 C10         -1.3240    -5.7380     0.3990 c3         2 FDE       0.063861
     49 H8          -2.8360    -6.8730     1.3880 h1         2 FDE       0.045768
     50 H9          -2.5290    -5.2880     2.1800 h1         2 FDE       0.045768
     51 O2          -0.2930    -6.3360     1.1450 oh         2 FDE      -0.392095
     52 C2          -1.4460    -6.4110    -0.9740 c3         2 FDE      -0.037685
     53 H10         -1.0160    -4.6880     0.2310 h1         2 FDE       0.061112
     54 H11         -1.7300    -7.4800    -0.8640 hc         2 FDE       0.025722
     55 H12         -0.4740    -6.3520    -1.5100 hc         2 FDE       0.025722
     56 H13         -2.2140    -5.8980    -1.5910 hc         2 FDE       0.025722
     57 H14         -0.5120    -7.2990     1.2540 ho         2 FDE       0.210503
     58 H15         -6.6310    -3.2070    -0.9750 ho         2 FDE       0.210585
     59 H16         -8.9010    -7.3050    -0.7750 h4         2 FDE       0.090152
     60 H17         -7.2640    -6.9680    -2.8490 ha         2 FDE       0.064488
     61 H18         -4.9800    -6.0030    -1.8620 ha         2 FDE       0.064831
@<TRIPOS>BOND
     1     1     2 1   
     2     2     3 1   
     3     2     4 1   
     4     2     5 1   
     5     3     6 1   
     6     3     7 2   
     7     6     8 1   
     8     8     9 2   
     9     7     9 1   
    10     8    10 1   
    11    10    11 1   
    12    10    12 1   
    13    10    13 1   
    14    11    14 2   
    15    14    15 1   
    16    11    16 1   
    17    16    17 1   
    18    15    17 2   
    19    17    18 1   
    20    18    19 1   
    21    18    20 1   
    22    18    21 1   
    23     1    22 1   
    24    19    23 1   
    25    19    24 1   
    26     7    25 1   
    27     9    26 1   
    28    14    27 1   
    29    15    28 1   
    30    29    30 1   
    31    30    31 2   
    32    29    32 1   
    33    32    33 2   
    34    31    33 1   
    35    32    34 1   
    36    34    35 1   
    37    34    36 1   
    38    34    37 1   
    39    35    38 1   
    40    35    39 1   
    41    39    40 1   
    42    39    41 1   
    43    39    42 1   
    44    40    43 1   
    45    43    44 1   
    46    43    45 1   
    47    40    46 1   
    48    40    47 1   
    49    38    48 1   
    50    38    49 1   
    51    38    50 1   
    52    48    51 1   
    53    48    52 1   
    54    48    53 1   
    55    52    54 1   
    56    52    55 1   
    57    52    56 1   
    58    51    57 1   
    59    46    58 1   
    60    30    59 1   
    61    31    60 1   
    62    33    61 1   
    63     1    43 1   
@<TRIPOS>SUBSTRUCTURE
     1 DFA         1 TEMP              0 ****  ****    0 ROOT
