@<TRIPOS>MOLECULE
DFAFDE2-3
    93    96  3  0  0
SMALL
gas

@<TRIPOS>ATOM
      1 N1         -4.2102   -0.4048    1.0497 n3      1  DFA       -0.3081
      2 C          -3.3502    0.5352    1.8097 c3      1  DFA        0.0429
      3 C1         -1.8802    0.4752    1.4697 cc      1  DFA        0.0727
      4 H          -3.4702    0.3252    2.8797 h1      1  DFA        0.0501
      5 H1         -3.7002    1.5552    1.6497 h1      1  DFA        0.0501
      6 O          -1.1602    1.6352    1.4297 os      1  DFA       -0.3174
      7 C2         -1.1802   -0.6448    1.1197 cd      1  DFA       -0.0319
      8 C3          0.0498    1.1852    0.9697 cc      1  DFA        0.0654
      9 C4          0.1098   -0.1748    0.7597 cd      1  DFA       -0.0327
     10 C5          1.1498    2.1552    0.6597 c3      1  DFA        0.0418
     11 C6          2.5298    1.6752    1.0497 cc      1  DFA        0.0654
     12 H2          0.9498    3.1052    1.1797 hc      1  DFA        0.0409
     13 H3          1.1298    2.3952   -0.4103 hc      1  DFA        0.0409
     14 C7          2.8298    1.0252    2.2197 cd      1  DFA       -0.0327
     15 C8          4.2398    0.8452    2.1697 cd      1  DFA       -0.0319
     16 O1          3.5998    1.9452    0.2397 os      1  DFA       -0.3174
     17 C9          4.6198    1.4052    0.9797 cc      1  DFA        0.0727
     18 C10         6.0498    1.5252    0.5097 c3      1  DFA        0.0429
     19 N2          6.7498    0.2352    0.5397 n3      1  DFA       -0.3081
     20 H4          6.5698    2.2452    1.1397 h1      1  DFA        0.0501
     21 H5          6.0498    1.9152   -0.5203 h1      1  DFA        0.0501
     22 H6         -5.1802   -0.2348    1.3097 hn      1  DFA        0.1227
     23 H8          7.7098    0.3652    0.2397 hn      1  DFA        0.1227
     24 H10        -1.5502   -1.6648    1.0497 ha      1  DFA        0.0648
     25 H11         0.9398   -0.7548    0.3797 ha      1  DFA        0.0648
     26 H12         2.1598    0.7352    3.0097 ha      1  DFA        0.0648
     27 H13         4.8698    0.3752    2.9197 ha      1  DFA        0.0648
     28 O          -3.2202    3.4652   -3.6703 os      2  FDE       -0.3212
     29 C          -2.8302    2.7752   -4.7903 cc      2  FDE        0.0455
     30 C3         -3.8102    1.9752   -5.3203 cd      2  FDE       -0.0364
     31 C4         -4.5102    3.0252   -3.5203 cc      2  FDE        0.0725
     32 C5         -4.9402    2.1452   -4.4803 cd      2  FDE       -0.0322
     33 C6         -5.3602    3.5252   -2.3703 c3      2  FDE        0.0457
     34 N          -6.2702    2.4952   -1.8203 n3      2  FDE       -0.2919
     35 H          -5.9402    4.3752   -2.7703 h1      2  FDE        0.0503
     36 H1         -4.7202    3.9352   -1.5803 h1      2  FDE        0.0503
     37 C7         -7.5702    3.0752   -1.4103 c3      2  FDE        0.0245
     38 C8         -5.6802    1.5952   -0.7903 c3      2  FDE        0.0261
     39 C9         -4.3502    0.9052   -1.1803 c3      2  FDE        0.0791
     40 H2         -6.4002    0.7952   -0.5603 h1      2  FDE        0.0458
     41 H3         -5.5202    2.1552    0.1497 h1      2  FDE        0.0458
     42 C1         -4.1102   -0.4348   -0.4303 c3      2  FDE        0.0229
     43 H4         -3.1202   -0.8148   -0.7203 h1      2  FDE        0.0456
     44 H5         -4.8402   -1.1648   -0.8003 h1      2  FDE        0.0456
     45 O1         -3.2502    1.7952   -0.9703 oh      2  FDE       -0.3905
     46 H7         -4.4002    0.6452   -2.2403 h1      2  FDE        0.0628
     47 C10        -8.7002    2.0452   -1.1803 c3      2  FDE        0.0639
     48 H8         -7.9202    3.7652   -2.1903 h1      2  FDE        0.0458
     49 H9         -7.4402    3.6652   -0.4903 h1      2  FDE        0.0458
     50 O2         -9.9002    2.7352   -0.8403 oh      2  FDE       -0.3921
     51 C2         -8.9602    1.1652   -2.4303 c3      2  FDE       -0.0377
     52 H10        -8.4302    1.3852   -0.3403 h1      2  FDE        0.0611
     53 H11        -9.1802    1.7952   -3.3003 hc      2  FDE        0.0257
     54 H12        -9.8102    0.4952   -2.2603 hc      2  FDE        0.0257
     55 H13        -8.0802    0.5552   -2.6603 hc      2  FDE        0.0257
     56 H14       -10.1502    3.2852   -1.6003 ho      2  FDE        0.2105
     57 H15        -2.4502    1.3652   -1.3103 ho      2  FDE        0.2106
     58 H16        -1.8102    2.9352   -5.1203 h4      2  FDE        0.0902
     59 H17        -3.7502    1.3352   -6.1903 ha      2  FDE        0.0645
     60 H18        -5.9102    1.6752   -4.5603 ha      2  FDE        0.0648
     61 O           2.5978   -3.9528   -1.0303 os      3  FDE       -0.3212
     62 C           1.5328   -3.1048   -1.2253 cc      3  FDE        0.0455
     63 C3          1.7688   -1.8118   -0.8163 cd      3  FDE       -0.0364
     64 C4          3.5248   -3.1018   -0.4753 cc      3  FDE        0.0725
     65 C5          3.0938   -1.8058   -0.3343 cd      3  FDE       -0.0322
     66 C6          4.9118   -3.5908   -0.1413 c3      3  FDE        0.0457
     67 N           5.5418   -2.8568    0.9867 n3      3  FDE       -0.2919
     68 H           5.5128   -3.4728   -1.0573 h1      3  FDE        0.0503
     69 H1          4.8818   -4.6698    0.0717 h1      3  FDE        0.0503
     70 C7          6.9688   -2.5598    0.7417 c3      3  FDE        0.0261
     71 C8          5.2768   -3.4288    2.3357 c3      3  FDE        0.0245
     72 C9          3.7778   -3.5948    2.7107 c3      3  FDE        0.0639
     73 H2          5.7078   -2.7598    3.0917 h1      3  FDE        0.0458
     74 H3          5.7768   -4.3998    2.4357 h1      3  FDE        0.0458
     75 C1          3.5858   -3.6038    4.2487 c3      3  FDE       -0.0377
     76 H4          4.1468   -4.4278    4.7127 hc      3  FDE        0.0257
     77 H5          2.5258   -3.7238    4.4967 hc      3  FDE        0.0257
     78 H6          3.9308   -2.6538    4.6767 hc      3  FDE        0.0257
     79 O1          3.2748   -4.8348    2.2007 oh      3  FDE       -0.3921
     80 H7          3.2128   -2.7548    2.3047 h1      3  FDE        0.0611
     81 C10         7.5728   -1.4708    1.6547 c3      3  FDE        0.0791
     82 H8          7.0858   -2.2078   -0.3013 h1      3  FDE        0.0458
     83 H9          7.5618   -3.4808    0.8417 h1      3  FDE        0.0458
     84 O2          8.9278   -1.2428    1.2907 oh      3  FDE       -0.3905
     85 C2          6.7928   -0.1308    1.5747 c3      3  FDE        0.0229
     86 H10         7.5508   -1.8138    2.6987 h1      3  FDE        0.0628
     87 H11         7.2758    0.6312    2.1917 h1      3  FDE        0.0456
     88 H12         5.7638   -0.2588    1.9337 h1      3  FDE        0.0456
     89 H14         8.9268   -0.8908    0.3747 ho      3  FDE        0.2106
     90 H15         2.3028   -4.7958    2.2317 ho      3  FDE        0.2105
     91 H16         0.6508   -3.5478   -1.6663 h4      3  FDE        0.0902
     92 H17         1.0958   -0.9738   -0.8783 ha      3  FDE        0.0645
     93 H18         3.6488   -0.9638    0.0637 ha      3  FDE        0.0648
@<TRIPOS>BOND
     1     1     2    1
     2     2     3    1
     3     2     4    1
     4     2     5    1
     5     3     6    1
     6     3     7    2
     7     6     8    1
     8     8     9    2
     9     7     9    1
    10     8    10    1
    11    10    11    1
    12    10    12    1
    13    10    13    1
    14    11    14    2
    15    14    15    1
    16    11    16    1
    17    16    17    1
    18    15    17    2
    19    17    18    1
    20    18    19    1
    21    18    20    1
    22    18    21    1
    23     1    22    1
    24    19    23    1
    25     7    24    1
    26     9    25    1
    27    14    26    1
    28    15    27    1
    29    28    29    1
    30    29    30    2
    31    28    31    1
    32    31    32    2
    33    30    32    1
    34    31    33    1
    35    33    34    1
    36    33    35    1
    37    33    36    1
    38    34    37    1
    39    34    38    1
    40    38    39    1
    41    38    40    1
    42    38    41    1
    43    39    42    1
    44    42    43    1
    45    42    44    1
    46    39    45    1
    47    39    46    1
    48    37    47    1
    49    37    48    1
    50    37    49    1
    51    47    50    1
    52    47    51    1
    53    47    52    1
    54    51    53    1
    55    51    54    1
    56    51    55    1
    57    50    56    1
    58    45    57    1
    59    29    58    1
    60    30    59    1
    61    32    60    1
    62     1    42    1
    63    61    62    1
    64    62    63    2
    65    61    64    1
    66    64    65    2
    67    63    65    1
    68    64    66    1
    69    66    67    1
    70    66    68    1
    71    66    69    1
    72    67    70    1
    73    67    71    1
    74    71    72    1
    75    71    73    1
    76    71    74    1
    77    72    75    1
    78    75    76    1
    79    75    77    1
    80    75    78    1
    81    72    79    1
    82    72    80    1
    83    70    81    1
    84    70    82    1
    85    70    83    1
    86    81    84    1
    87    81    85    1
    88    81    86    1
    89    85    87    1
    90    85    88    1
    91    84    89    1
    92    79    90    1
    93    62    91    1
    94    63    92    1
    95    65    93    1
    96    19    85    1
@<TRIPOS>SUBSTRUCTURE
     1 DFA          1 RESIDUE
     2 FDE          1 RESIDUE
     3 FDE          1 RESIDUE