@<TRIPOS>MOLECULE
DFAFDE2-4
    93    96  3  0  0
SMALL
gas

@<TRIPOS>ATOM
      1 N1         -8.5328   -2.8788   -1.2868 n3      1  DFA       -0.3248
      2 C          -7.9328   -1.5588   -1.0768 c3      1  DFA        0.0403
      3 C1         -6.4928   -1.4788   -1.5268 cc      1  DFA        0.0725
      4 H          -7.9828   -1.2988   -0.0168 h1      1  DFA        0.0498
      5 H1         -8.5128   -0.7988   -1.6268 h1      1  DFA        0.0498
      6 O          -5.6928   -0.4688   -1.0668 os      1  DFA       -0.3174
      7 C2         -5.8928   -2.3088   -2.4368 cd      1  DFA       -0.0319
      8 C3         -4.5328   -0.7188   -1.7468 cc      1  DFA        0.0654
      9 C4         -4.5828   -1.7988   -2.5868 cd      1  DFA       -0.0327
     10 C5         -3.3528    0.2112   -1.6168 c3      1  DFA        0.0418
     11 C6         -2.0228   -0.4888   -1.5368 cc      1  DFA        0.0654
     12 H2         -3.4828    0.8412   -0.7168 hc      1  DFA        0.0409
     13 H3         -3.3528    0.9112   -2.4668 hc      1  DFA        0.0409
     14 C7         -1.7528   -1.5488   -0.7068 cd      1  DFA       -0.0327
     15 C8         -0.3728   -1.8288   -0.9368 cd      1  DFA       -0.0319
     16 O1         -0.9628   -0.0388   -2.2668 os      1  DFA       -0.3174
     17 C9          0.0272   -0.8988   -1.8668 cc      1  DFA        0.0730
     18 C10         1.4272   -0.7288   -2.3968 c3      1  DFA        0.0457
     19 N2          2.4072   -1.5988   -1.7168 n3      1  DFA       -0.2918
     20 H4          1.6972    0.3212   -2.2668 h1      1  DFA        0.0503
     21 H5          1.4272   -0.9488   -3.4768 h1      1  DFA        0.0503
     22 H6         -9.5028   -2.8588   -0.9868 hn      1  DFA        0.1188
     23 H7         -8.5428   -3.0988   -2.2868 hn      1  DFA        0.1188
     24 H10        -6.3228   -3.1588   -2.9468 ha      1  DFA        0.0648
     25 H11        -3.8028   -2.1788   -3.2368 ha      1  DFA        0.0648
     26 H12        -2.4228   -2.0488   -0.0268 ha      1  DFA        0.0648
     27 H13         0.2172   -2.5988   -0.4568 ha      1  DFA        0.0648
     28 O           5.7272    3.3612   -2.8368 os      2  FDE       -0.3212
     29 C           5.0472    3.8012   -3.9568 cc      2  FDE        0.0455
     30 C5          3.6972    3.8912   -3.7768 cd      2  FDE       -0.0364
     31 C6          4.6972    3.1812   -1.9568 cc      2  FDE        0.0725
     32 C7          3.4572    3.4912   -2.4368 cd      2  FDE       -0.0322
     33 C8          4.9772    2.7412   -0.5368 c3      2  FDE        0.0457
     34 N           3.9672    1.7712   -0.0268 n3      2  FDE       -0.2919
     35 H           4.9772    3.6412    0.0832 h1      2  FDE        0.0503
     36 H1          5.9872    2.3112   -0.4768 h1      2  FDE        0.0503
     37 C9          3.5872    2.0412    1.3832 c3      2  FDE        0.0245
     38 C10         4.2872    0.3512   -0.3068 c3      2  FDE        0.0261
     39 C3          4.3772   -0.0088   -1.8168 c3      2  FDE        0.0794
     40 H2          3.5172   -0.2788    0.1432 h1      2  FDE        0.0458
     41 H3          5.2272    0.0712    0.1832 h1      2  FDE        0.0458
     42 C1          3.8172   -1.4088   -2.1368 c3      2  FDE        0.0261
     43 H4          4.4372   -2.1588   -1.6268 h1      2  FDE        0.0458
     44 H5          3.9072   -1.5988   -3.2168 h1      2  FDE        0.0458
     45 O1          5.7472    0.0412   -2.2268 oh      2  FDE       -0.3905
     46 H7          3.8072    0.7212   -2.3868 h1      2  FDE        0.0628
     47 C4          2.2672    1.3612    1.8232 c3      2  FDE        0.0639
     48 H8          3.4672    3.1212    1.5232 h1      2  FDE        0.0458
     49 H9          4.3972    1.7112    2.0432 h1      2  FDE        0.0458
     50 O2          1.9972    1.7112    3.1832 oh      2  FDE       -0.3921
     51 C2          1.0672    1.7912    0.9432 c3      2  FDE       -0.0377
     52 H10         2.3672    0.2712    1.7632 h1      2  FDE        0.0611
     53 H11         0.9272    2.8712    0.9632 hc      2  FDE        0.0257
     54 H12         0.1372    1.3212    1.3032 hc      2  FDE        0.0257
     55 H13         1.2072    1.4812   -0.0968 hc      2  FDE        0.0257
     56 H14         1.8572    2.6712    3.2132 ho      2  FDE        0.2105
     57 H15         5.7572    0.1912   -3.1968 ho      2  FDE        0.2106
     58 H16         5.6572    4.0312   -4.8268 h4      2  FDE        0.0902
     59 H17         2.9572    4.2212   -4.4968 ha      2  FDE        0.0645
     60 H18         2.5072    3.4312   -1.9268 ha      2  FDE        0.0648
     61 O          -2.4688    1.2292   -0.1438 os      3  FDE       -0.3212
     62 C          -3.1928    0.4102   -0.9788 cc      3  FDE        0.0455
     63 C5         -3.3268   -0.8778   -0.5138 cd      3  FDE       -0.0364
     64 C6         -2.1618    0.3692    0.8822 cc      3  FDE        0.0725
     65 C7         -2.6578   -0.9018    0.7262 cd      3  FDE       -0.0322
     66 C8         -1.4058    0.8572    2.0922 c3      3  FDE        0.0457
     67 N          -0.5938   -0.2008    2.7492 n3      3  FDE       -0.2919
     68 H          -2.1588    1.2512    2.7932 h1      3  FDE        0.0503
     69 H1         -0.7698    1.7102    1.8112 h1      3  FDE        0.0503
     70 C9         -0.6748   -0.1408    4.2242 c3      3  FDE        0.0245
     71 C10         0.7972   -0.3368    2.2352 c3      3  FDE        0.0261
     72 C3          0.9252   -0.5798    0.7062 c3      3  FDE        0.0794
     73 H2          1.2682   -1.2008    2.7212 h1      3  FDE        0.0458
     74 H3          1.3832    0.5502    2.5032 h1      3  FDE        0.0458
     75 C1          2.2622   -1.2868    0.3642 c3      3  FDE        0.0261
     76 H4          3.1212   -0.6828    0.6862 h1      3  FDE        0.0458
     77 H5          2.3082   -2.2648    0.8592 h1      3  FDE        0.0458
     78 O1          0.8982    0.6672    0.0022 oh      3  FDE       -0.3905
     79 H7          0.1082   -1.2238    0.3762 h1      3  FDE        0.0628
     80 C4         -0.2068   -1.4208    4.9532 c3      3  FDE        0.0639
     81 H8         -1.7288    0.0302    4.5172 h1      3  FDE        0.0458
     82 H9         -0.0908    0.7152    4.5932 h1      3  FDE        0.0458
     83 O2         -0.3788   -1.2588    6.3552 oh      3  FDE       -0.3921
     84 C2         -0.9828   -2.6828    4.4892 c3      3  FDE       -0.0377
     85 H10         0.8612   -1.5868    4.7542 h1      3  FDE        0.0611
     86 H11        -2.0648   -2.5508    4.6282 hc      3  FDE        0.0257
     87 H12        -0.6648   -3.5598    5.0602 hc      3  FDE        0.0257
     88 H13        -0.7978   -2.8828    3.4262 hc      3  FDE        0.0257
     89 H14        -1.3408   -1.1608    6.5202 ho      3  FDE        0.2105
     90 H15         0.7312    0.4752   -0.9358 ho      3  FDE        0.2106
     91 H16        -3.5608    0.8672   -1.8868 h4      3  FDE        0.0902
     92 H17        -3.8558   -1.6908   -0.9828 ha      3  FDE        0.0645
     93 H18        -2.5548   -1.7408    1.4072 ha      3  FDE        0.0648
@<TRIPOS>BOND
     1     1     2    1
     2     2     3    1
     3     2     4    1
     4     2     5    1
     5     3     6    1
     6     3     7    2
     7     6     8    1
     8     8     9    2
     9     7     9    1
    10     8    10    1
    11    10    11    1
    12    10    12    1
    13    10    13    1
    14    11    14    2
    15    14    15    1
    16    11    16    1
    17    16    17    1
    18    15    17    2
    19    17    18    1
    20    18    19    1
    21    18    20    1
    22    18    21    1
    23     1    22    1
    24     1    23    1
    25     7    24    1
    26     9    25    1
    27    14    26    1
    28    15    27    1
    29    28    29    1
    30    29    30    2
    31    28    31    1
    32    31    32    2
    33    30    32    1
    34    31    33    1
    35    33    34    1
    36    33    35    1
    37    33    36    1
    38    34    37    1
    39    34    38    1
    40    38    39    1
    41    38    40    1
    42    38    41    1
    43    39    42    1
    44    42    43    1
    45    42    44    1
    46    39    45    1
    47    39    46    1
    48    37    47    1
    49    37    48    1
    50    37    49    1
    51    47    50    1
    52    47    51    1
    53    47    52    1
    54    51    53    1
    55    51    54    1
    56    51    55    1
    57    50    56    1
    58    45    57    1
    59    29    58    1
    60    30    59    1
    61    32    60    1
    62    19    42    1
    63    61    62    1
    64    62    63    2
    65    61    64    1
    66    64    65    2
    67    63    65    1
    68    64    66    1
    69    66    67    1
    70    66    68    1
    71    66    69    1
    72    67    70    1
    73    67    71    1
    74    71    72    1
    75    71    73    1
    76    71    74    1
    77    72    75    1
    78    75    76    1
    79    75    77    1
    80    72    78    1
    81    72    79    1
    82    70    80    1
    83    70    81    1
    84    70    82    1
    85    80    83    1
    86    80    84    1
    87    80    85    1
    88    84    86    1
    89    84    87    1
    90    84    88    1
    91    83    89    1
    92    78    90    1
    93    62    91    1
    94    63    92    1
    95    65    93    1
    96    19    75    1
@<TRIPOS>SUBSTRUCTURE
     1 DFA          1 RESIDUE
     2 FDE          1 RESIDUE
     3 FDE          1 RESIDUE
