@<TRIPOS>MOLECULE
DFAFDE2-1
    93    96  3  0  0
SMALL
gas

@<TRIPOS>ATOM
      1 N1         -0.6451    1.5400    1.1007 n3      1  DFA       -0.2918
      2 C           0.0649    2.8300    1.1907 c3      1  DFA        0.0457
      3 C1          1.5149    2.7600    0.7807 cc      1  DFA        0.0730
      4 H           0.0149    3.2000    2.2207 h1      1  DFA        0.0503
      5 H1         -0.4351    3.5700    0.5507 h1      1  DFA        0.0503
      6 O           2.3649    3.7600    1.1707 os      1  DFA       -0.3174
      7 C2          2.0649    1.8400   -0.0793 cd      1  DFA       -0.0319
      8 C3          3.5049    3.4100    0.5007 cc      1  DFA        0.0654
      9 C4          3.3949    2.2800   -0.2693 cd      1  DFA       -0.0327
     10 C5          4.6949    4.3300    0.5107 c3      1  DFA        0.0418
     11 C6          6.0249    3.6500    0.7107 cc      1  DFA        0.0654
     12 H2          4.5649    5.0800    1.3107 hc      1  DFA        0.0409
     13 H3          4.7149    4.9000   -0.4193 hc      1  DFA        0.0409
     14 C7          6.2649    2.6200    1.5807 cd      1  DFA       -0.0327
     15 C8          7.6649    2.4000    1.5107 cd      1  DFA       -0.0319
     16 O1          7.1449    4.1400    0.0807 os      1  DFA       -0.3174
     17 C9          8.1149    3.3300    0.6107 cc      1  DFA        0.0725
     18 C10         9.5649    3.5700    0.2607 c3      1  DFA        0.0403
     19 N2         10.3949    2.3700    0.3807 n3      1  DFA       -0.3248
     20 H4          9.9549    4.3600    0.9207 h1      1  DFA        0.0498
     21 H5          9.6149    3.9500   -0.7693 h1      1  DFA        0.0498
     22 H8         10.3949    2.0500    1.3507 hn      1  DFA        0.1188
     23 H9         11.3549    2.6000    0.1507 hn      1  DFA        0.1188
     24 H10         1.5749    1.0000   -0.5493 ha      1  DFA        0.0648
     25 H11         4.1449    1.8400   -0.9193 ha      1  DFA        0.0648
     26 H12         5.5449    2.1000    2.2107 ha      1  DFA        0.0648
     27 H13         8.2449    1.6800    2.0807 ha      1  DFA        0.0648
     28 O          -3.0851   -3.4300    0.5907 os      2  FDE       -0.3212
     29 C          -2.0651   -4.1000    1.2107 cc      2  FDE        0.0455
     30 C3         -2.0151   -3.9000    2.5707 cd      2  FDE       -0.0364
     31 C4         -3.6751   -2.7800    1.6407 cc      2  FDE        0.0725
     32 C5         -3.0951   -3.0300    2.8607 cd      2  FDE       -0.0322
     33 C6         -4.9051   -1.9400    1.4407 c3      2  FDE        0.0457
     34 N          -4.9651   -0.7700    2.3507 n3      2  FDE       -0.2919
     35 H          -5.7651   -2.6000    1.6107 h1      2  FDE        0.0503
     36 H1         -4.9751   -1.6100    0.3907 h1      2  FDE        0.0503
     37 C7         -6.3351   -0.5300    2.8607 c3      2  FDE        0.0245
     38 C8         -4.2851    0.4700    1.8707 c3      2  FDE        0.0261
     39 C9         -2.8151    0.3000    1.4007 c3      2  FDE        0.0794
     40 H2         -4.2851    1.2000    2.6807 h1      2  FDE        0.0458
     41 H3         -4.8651    0.9000    1.0407 h1      2  FDE        0.0458
     42 C1         -2.0651    1.6500    1.5007 c3      2  FDE        0.0261
     43 H4         -2.5751    2.3800    0.8607 h1      2  FDE        0.0458
     44 H5         -2.1251    2.0100    2.5307 h1      2  FDE        0.0458
     45 O1         -2.7851   -0.1500    0.0407 oh      2  FDE       -0.3905
     46 H7         -2.3151   -0.4200    2.0507 h1      2  FDE        0.0628
     47 C10        -6.4151    0.3900    4.1107 c3      2  FDE        0.0639
     48 H8         -6.7851   -1.4900    3.1507 h1      2  FDE        0.0458
     49 H9         -6.9551   -0.1100    2.0607 h1      2  FDE        0.0458
     50 O2         -7.7751    0.5100    4.5107 oh      2  FDE       -0.3921
     51 C2         -5.5751   -0.1400    5.2907 c3      2  FDE       -0.0377
     52 H10        -6.0451    1.3900    3.8407 h1      2  FDE        0.0611
     53 H11        -5.8851   -1.1600    5.5607 hc      2  FDE        0.0257
     54 H12        -5.7051    0.5000    6.1707 hc      2  FDE        0.0257
     55 H13        -4.5151   -0.1600    5.0407 hc      2  FDE        0.0257
     56 H14        -8.0751   -0.3700    4.7907 ho      2  FDE        0.2105
     57 H15        -1.9151   -0.5600   -0.1093 ho      2  FDE        0.2106
     58 H16        -1.4351   -4.7100    0.5707 h4      2  FDE        0.0902
     59 H17        -1.3151   -4.3300    3.2707 ha      2  FDE        0.0645
     60 H18        -3.3851   -2.6400    3.8307 ha      2  FDE        0.0648
     61 O          -1.1891   -2.6300   -6.0453 os      3  FDE       -0.3212
     62 C          -2.4921   -3.0550   -5.9383 cc      3  FDE        0.0455
     63 C3         -3.1411   -2.5840   -4.8193 cd      3  FDE       -0.0364
     64 C4         -1.0631   -1.8520   -4.9193 cc      3  FDE        0.0725
     65 C5         -2.1991   -1.7740   -4.1523 cd      3  FDE       -0.0322
     66 C6          0.2179   -1.1070   -4.6413 c3      3  FDE        0.0457
     67 N           0.4719   -0.8870   -3.1933 n3      3  FDE       -0.2919
     68 H           0.1379   -0.1420   -5.1663 h1      3  FDE        0.0503
     69 H1          1.0629   -1.6400   -5.1023 h1      3  FDE        0.0503
     70 C7          0.9899    0.4690   -2.9103 c3      3  FDE        0.0261
     71 C8          1.2379   -1.9700   -2.5173 c3      3  FDE        0.0245
     72 C9          0.6329   -3.3950   -2.6373 c3      3  FDE        0.0639
     73 H2          1.2849   -1.7480   -1.4433 h1      3  FDE        0.0458
     74 H3          2.2679   -1.9880   -2.8913 h1      3  FDE        0.0458
     75 C1          1.1029   -4.3010   -1.4723 c3      3  FDE       -0.0377
     76 H4          2.1979   -4.3960   -1.4623 hc      3  FDE        0.0257
     77 H5          0.6699   -5.3020   -1.5733 hc      3  FDE        0.0257
     78 H6          0.7739   -3.8830   -0.5123 hc      3  FDE        0.0257
     79 O1          1.0509   -4.0080   -3.8633 oh      3  FDE       -0.3921
     80 H7         -0.4551   -3.3260   -2.5943 h1      3  FDE        0.0611
     81 C10         0.8909    0.9070   -1.4323 c3      3  FDE        0.0794
     82 H8          0.4119    1.2030   -3.5043 h1      3  FDE        0.0458
     83 H9          2.0379    0.5400   -3.2363 h1      3  FDE        0.0458
     84 O2          1.3719    2.2380   -1.2983 oh      3  FDE       -0.3905
     85 C2         -0.5621    0.8350   -0.8903 c3      3  FDE        0.0261
     86 H10         1.5179    0.2510   -0.8123 h1      3  FDE        0.0628
     87 H11        -1.2401    1.4450   -1.5033 h1      3  FDE        0.0458
     88 H12        -0.9301   -0.1990   -0.9003 h1      3  FDE        0.0458
     89 H14         0.7729    2.8170   -1.8173 ho      3  FDE        0.2106
     90 H15         0.4719   -4.7730   -4.0243 ho      3  FDE        0.2105
     91 H16        -2.8461   -3.7010   -6.7303 h4      3  FDE        0.0902
     92 H17        -4.1601   -2.7690   -4.5283 ha      3  FDE        0.0645
     93 H18        -2.3411   -1.2060   -3.2393 ha      3  FDE        0.0648
@<TRIPOS>BOND
     1     1     2    1
     2     2     3    1
     3     2     4    1
     4     2     5    1
     5     3     6    1
     6     3     7    2
     7     6     8    1
     8     8     9    2
     9     7     9    1
    10     8    10    1
    11    10    11    1
    12    10    12    1
    13    10    13    1
    14    11    14    2
    15    14    15    1
    16    11    16    1
    17    16    17    1
    18    15    17    2
    19    17    18    1
    20    18    19    1
    21    18    20    1
    22    18    21    1
    23    19    22    1
    24    19    23    1
    25     7    24    1
    26     9    25    1
    27    14    26    1
    28    15    27    1
    29    28    29    1
    30    29    30    2
    31    28    31    1
    32    31    32    2
    33    30    32    1
    34    31    33    1
    35    33    34    1
    36    33    35    1
    37    33    36    1
    38    34    37    1
    39    34    38    1
    40    38    39    1
    41    38    40    1
    42    38    41    1
    43    39    42    1
    44    42    43    1
    45    42    44    1
    46    39    45    1
    47    39    46    1
    48    37    47    1
    49    37    48    1
    50    37    49    1
    51    47    50    1
    52    47    51    1
    53    47    52    1
    54    51    53    1
    55    51    54    1
    56    51    55    1
    57    50    56    1
    58    45    57    1
    59    29    58    1
    60    30    59    1
    61    32    60    1
    62     1    42    1
    63    61    62    1
    64    62    63    2
    65    61    64    1
    66    64    65    2
    67    63    65    1
    68    64    66    1
    69    66    67    1
    70    66    68    1
    71    66    69    1
    72    67    70    1
    73    67    71    1
    74    71    72    1
    75    71    73    1
    76    71    74    1
    77    72    75    1
    78    75    76    1
    79    75    77    1
    80    75    78    1
    81    72    79    1
    82    72    80    1
    83    70    81    1
    84    70    82    1
    85    70    83    1
    86    81    84    1
    87    81    85    1
    88    81    86    1
    89    85    87    1
    90    85    88    1
    91    84    89    1
    92    79    90    1
    93    62    91    1
    94    63    92    1
    95    65    93    1
    96     1    85    1
@<TRIPOS>SUBSTRUCTURE
     1 DFA          1 RESIDUE
     2 FDE          1 RESIDUE
     3 FDE          1 RESIDUE