@<TRIPOS>MOLECULE
DFAFDE2-1
    93    96  3  0  0
SMALL
gas

@<TRIPOS>ATOM
      1 N1         -1.2230   -0.8548    2.0090 n3      1  DFA       -0.2918
      2 C          -0.3630    0.0852    2.7690 c3      1  DFA        0.0457
      3 C1          1.1070    0.0252    2.4290 cc      1  DFA        0.0730
      4 H          -0.4830   -0.1248    3.8390 h1      1  DFA        0.0503
      5 H1         -0.7130    1.1052    2.6090 h1      1  DFA        0.0503
      6 O           1.8270    1.1852    2.3890 os      1  DFA       -0.3174
      7 C2          1.8070   -1.0948    2.0790 cd      1  DFA       -0.0319
      8 C3          3.0370    0.7352    1.9290 cc      1  DFA        0.0654
      9 C4          3.0970   -0.6248    1.7190 cd      1  DFA       -0.0327
     10 C5          4.1370    1.7052    1.6190 c3      1  DFA        0.0418
     11 C6          5.5170    1.2252    2.0090 cc      1  DFA        0.0654
     12 H2          3.9370    2.6552    2.1390 hc      1  DFA        0.0409
     13 H3          4.1170    1.9452    0.5490 hc      1  DFA        0.0409
     14 C7          5.8170    0.5752    3.1790 cd      1  DFA       -0.0327
     15 C8          7.2270    0.3952    3.1290 cd      1  DFA       -0.0319
     16 O1          6.5870    1.4952    1.1990 os      1  DFA       -0.3174
     17 C9          7.6070    0.9552    1.9390 cc      1  DFA        0.0725
     18 C10         9.0370    1.0752    1.4690 c3      1  DFA        0.0403
     19 N2          9.7370   -0.2148    1.4990 n3      1  DFA       -0.3248
     20 H4          9.5570    1.7952    2.0990 h1      1  DFA        0.0498
     21 H5          9.0370    1.4652    0.4390 h1      1  DFA        0.0498
     22 H8          9.7770   -0.5548    2.4590 hn      1  DFA        0.1188
     23 H9         10.6970   -0.0848    1.1990 hn      1  DFA        0.1188
     24 H10         1.4370   -2.1148    2.0090 ha      1  DFA        0.0648
     25 H11         3.9270   -1.2048    1.3390 ha      1  DFA        0.0648
     26 H12         5.1470    0.2852    3.9690 ha      1  DFA        0.0648
     27 H13         7.8570   -0.0748    3.8790 ha      1  DFA        0.0648
     28 O          -0.2330    3.0152   -2.7110 os      2  FDE       -0.3212
     29 C           0.1570    2.3252   -3.8310 cc      2  FDE        0.0455
     30 C3         -0.8230    1.5252   -4.3610 cd      2  FDE       -0.0364
     31 C4         -1.5230    2.5752   -2.5610 cc      2  FDE        0.0725
     32 C5         -1.9530    1.6952   -3.5210 cd      2  FDE       -0.0322
     33 C6         -2.3730    3.0752   -1.4110 c3      2  FDE        0.0457
     34 N          -3.2830    2.0452   -0.8610 n3      2  FDE       -0.2919
     35 H          -2.9530    3.9252   -1.8110 h1      2  FDE        0.0503
     36 H1         -1.7330    3.4852   -0.6210 h1      2  FDE        0.0503
     37 C7         -4.5830    2.6252   -0.4510 c3      2  FDE        0.0245
     38 C8         -2.6930    1.1452    0.1690 c3      2  FDE        0.0261
     39 C9         -1.3630    0.4552   -0.2210 c3      2  FDE        0.0794
     40 H2         -3.4130    0.3452    0.3990 h1      2  FDE        0.0458
     41 H3         -2.5330    1.7052    1.1090 h1      2  FDE        0.0458
     42 C1         -1.1230   -0.8848    0.5290 c3      2  FDE        0.0261
     43 H4         -0.1330   -1.2648    0.2390 h1      2  FDE        0.0458
     44 H5         -1.8530   -1.6148    0.1590 h1      2  FDE        0.0458
     45 O1         -0.2630    1.3452   -0.0110 oh      2  FDE       -0.3905
     46 H7         -1.4130    0.1952   -1.2810 h1      2  FDE        0.0628
     47 C10        -5.7130    1.5952   -0.2210 c3      2  FDE        0.0639
     48 H8         -4.9330    3.3152   -1.2310 h1      2  FDE        0.0458
     49 H9         -4.4530    3.2152    0.4690 h1      2  FDE        0.0458
     50 O2         -6.9130    2.2852    0.1190 oh      2  FDE       -0.3921
     51 C2         -5.9730    0.7152   -1.4710 c3      2  FDE       -0.0377
     52 H10        -5.4430    0.9352    0.6190 h1      2  FDE        0.0611
     53 H11        -6.1930    1.3452   -2.3410 hc      2  FDE        0.0257
     54 H12        -6.8230    0.0452   -1.3010 hc      2  FDE        0.0257
     55 H13        -5.0930    0.1052   -1.7010 hc      2  FDE        0.0257
     56 H14        -7.1630    2.8352   -0.6410 ho      2  FDE        0.2105
     57 H15         0.5370    0.9152   -0.3510 ho      2  FDE        0.2106
     58 H16         1.1770    2.4852   -4.1610 h4      2  FDE        0.0902
     59 H17        -0.7630    0.8852   -5.2310 ha      2  FDE        0.0645
     60 H18        -2.9230    1.2252   -3.6010 ha      2  FDE        0.0648
     61 O          -0.4440   -4.8448   -1.9810 os      3  FDE       -0.3212
     62 C           0.4950   -5.5668   -1.2820 cc      3  FDE        0.0455
     63 C3          0.6670   -5.1438    0.0170 cd      3  FDE       -0.0364
     64 C4         -0.8560   -3.9418   -1.0310 cc      3  FDE        0.0725
     65 C5         -0.2390   -4.0768    0.1880 cd      3  FDE       -0.0322
     66 C6         -1.9560   -2.9558   -1.3350 c3      3  FDE        0.0457
     67 N          -1.8480   -1.6918   -0.5610 n3      3  FDE       -0.2919
     68 H          -2.9050   -3.4658   -1.1050 h1      3  FDE        0.0503
     69 H1         -1.9730   -2.7438   -2.4150 h1      3  FDE        0.0503
     70 C7         -3.1580   -1.2208   -0.0630 c3      3  FDE        0.0261
     71 C8         -1.0390   -0.6228   -1.2090 c3      3  FDE        0.0245
     72 C9          0.4130   -1.0198   -1.5930 c3      3  FDE        0.0639
     73 H2         -0.9510    0.2222   -0.5140 h1      3  FDE        0.0458
     74 H3         -1.5550   -0.2558   -2.1050 h1      3  FDE        0.0458
     75 C1          1.3270    0.2282   -1.6810 c3      3  FDE       -0.0377
     76 H4          0.9580    0.9362   -2.4350 hc      3  FDE        0.0257
     77 H5          2.3460   -0.0688   -1.9530 hc      3  FDE        0.0257
     78 H6          1.3690    0.7342   -0.7080 hc      3  FDE        0.0257
     79 O1          0.4290   -1.6638   -2.8730 oh      3  FDE       -0.3921
     80 H7          0.8170   -1.6818   -0.8250 h1      3  FDE        0.0611
     81 C10        -3.0840   -0.1698    1.0670 c3      3  FDE        0.0794
     82 H8         -3.7200   -2.0868    0.3380 h1      3  FDE        0.0458
     83 H9         -3.7450   -0.8098   -0.8970 h1      3  FDE        0.0458
     84 O2         -4.3990    0.1642    1.4920 oh      3  FDE       -0.3905
     85 C2         -2.2680   -0.6708    2.2890 c3      3  FDE        0.0261
     86 H10        -2.6030    0.7432    0.6890 h1      3  FDE        0.0628
     87 H11        -2.6860   -1.6088    2.6810 h1      3  FDE        0.0458
     88 H12        -2.2790    0.0742    3.0890 h1      3  FDE        0.0458
     89 H14        -4.7970   -0.6488    1.8710 ho      3  FDE        0.2106
     90 H15         1.2870   -2.1118   -2.9680 ho      3  FDE        0.2105
     91 H16         0.9800   -6.3648   -1.8270 h4      3  FDE        0.0902
     92 H17         1.3320   -5.5568    0.7560 ha      3  FDE        0.0645
     93 H18        -0.4090   -3.4908    1.0850 ha      3  FDE        0.0648
@<TRIPOS>BOND
     1     1     2    1
     2     2     3    1
     3     2     4    1
     4     2     5    1
     5     3     6    1
     6     3     7    2
     7     6     8    1
     8     8     9    2
     9     7     9    1
    10     8    10    1
    11    10    11    1
    12    10    12    1
    13    10    13    1
    14    11    14    2
    15    14    15    1
    16    11    16    1
    17    16    17    1
    18    15    17    2
    19    17    18    1
    20    18    19    1
    21    18    20    1
    22    18    21    1
    23    19    22    1
    24    19    23    1
    25     7    24    1
    26     9    25    1
    27    14    26    1
    28    15    27    1
    29    28    29    1
    30    29    30    2
    31    28    31    1
    32    31    32    2
    33    30    32    1
    34    31    33    1
    35    33    34    1
    36    33    35    1
    37    33    36    1
    38    34    37    1
    39    34    38    1
    40    38    39    1
    41    38    40    1
    42    38    41    1
    43    39    42    1
    44    42    43    1
    45    42    44    1
    46    39    45    1
    47    39    46    1
    48    37    47    1
    49    37    48    1
    50    37    49    1
    51    47    50    1
    52    47    51    1
    53    47    52    1
    54    51    53    1
    55    51    54    1
    56    51    55    1
    57    50    56    1
    58    45    57    1
    59    29    58    1
    60    30    59    1
    61    32    60    1
    62     1    42    1
    63    61    62    1
    64    62    63    2
    65    61    64    1
    66    64    65    2
    67    63    65    1
    68    64    66    1
    69    66    67    1
    70    66    68    1
    71    66    69    1
    72    67    70    1
    73    67    71    1
    74    71    72    1
    75    71    73    1
    76    71    74    1
    77    72    75    1
    78    75    76    1
    79    75    77    1
    80    75    78    1
    81    72    79    1
    82    72    80    1
    83    70    81    1
    84    70    82    1
    85    70    83    1
    86    81    84    1
    87    81    85    1
    88    81    86    1
    89    85    87    1
    90    85    88    1
    91    84    89    1
    92    79    90    1
    93    62    91    1
    94    63    92    1
    95    65    93    1
    96     1    85    1
@<TRIPOS>SUBSTRUCTURE
     1 DFA          1 RESIDUE
     2 FDE          1 RESIDUE
     3 FDE          1 RESIDUE