@<TRIPOS>MOLECULE
DFAFDE2-4
    93    96  3  0  0
SMALL
gas

@<TRIPOS>ATOM
      1 N1         -9.6838   -3.8380   -1.0161 n3      1  DFA       -0.3248
      2 C          -9.0838   -2.5080   -0.8161 c3      1  DFA        0.0403
      3 C1         -7.6438   -2.4380   -1.2561 cc      1  DFA        0.0725
      4 H          -9.1338   -2.2580    0.2539 h1      1  DFA        0.0498
      5 H1         -9.6638   -1.7580   -1.3561 h1      1  DFA        0.0498
      6 O          -6.8438   -1.4180   -0.7961 os      1  DFA       -0.3174
      7 C2         -7.0438   -3.2680   -2.1661 cd      1  DFA       -0.0319
      8 C3         -5.6838   -1.6780   -1.4761 cc      1  DFA        0.0654
      9 C4         -5.7238   -2.7580   -2.3161 cd      1  DFA       -0.0327
     10 C5         -4.5038   -0.7480   -1.3461 c3      1  DFA        0.0418
     11 C6         -3.1738   -1.4480   -1.2661 cc      1  DFA        0.0654
     12 H2         -4.6338   -0.1180   -0.4461 hc      1  DFA        0.0409
     13 H3         -4.4938   -0.0480   -2.1961 hc      1  DFA        0.0409
     14 C7         -2.8938   -2.5080   -0.4361 cd      1  DFA       -0.0327
     15 C8         -1.5238   -2.7880   -0.6661 cd      1  DFA       -0.0319
     16 O1         -2.1038   -0.9980   -1.9961 os      1  DFA       -0.3174
     17 C9         -1.1238   -1.8680   -1.5961 cc      1  DFA        0.0730
     18 C10         0.2762   -1.6980   -2.1261 c3      1  DFA        0.0457
     19 N2          1.2562   -2.5580   -1.4461 n3      1  DFA       -0.2918
     20 H4          0.5462   -0.6380   -1.9961 h1      1  DFA        0.0503
     21 H5          0.2762   -1.9080   -3.1961 h1      1  DFA        0.0503
     22 H6        -10.6538   -3.8180   -0.7161 hn      1  DFA        0.1188
     23 H7         -9.6938   -4.0480   -2.0161 hn      1  DFA        0.1188
     24 H10        -7.4738   -4.1180   -2.6761 ha      1  DFA        0.0648
     25 H11        -4.9438   -3.1380   -2.9661 ha      1  DFA        0.0648
     26 H12        -3.5738   -3.0180    0.2439 ha      1  DFA        0.0648
     27 H13        -0.9338   -3.5580   -0.1861 ha      1  DFA        0.0648
     28 O           4.5862    2.3920   -2.5761 os      2  FDE       -0.3212
     29 C           3.9162    2.8320   -3.6861 cc      2  FDE        0.0455
     30 C5          2.5562    2.9320   -3.5161 cd      2  FDE       -0.0364
     31 C6          3.5662    2.2220   -1.6861 cc      2  FDE        0.0725
     32 C7          2.3162    2.5220   -2.1761 cd      2  FDE       -0.0322
     33 C8          3.8362    1.7820   -0.2661 c3      2  FDE        0.0457
     34 N           2.8262    0.8120    0.2339 n3      2  FDE       -0.2919
     35 H           3.8362    2.6920    0.3439 h1      2  FDE        0.0503
     36 H1          4.8362    1.3420   -0.2061 h1      2  FDE        0.0503
     37 C9          2.4462    1.0820    1.6439 c3      2  FDE        0.0245
     38 C10         3.1362   -0.6080   -0.0361 c3      2  FDE        0.0261
     39 C3          3.2362   -0.9680   -1.5461 c3      2  FDE        0.0794
     40 H2          2.3662   -1.2380    0.4139 h1      2  FDE        0.0458
     41 H3          4.0762   -0.8880    0.4639 h1      2  FDE        0.0458
     42 C1          2.6662   -2.3780   -1.8561 c3      2  FDE        0.0261
     43 H4          3.2862   -3.1180   -1.3461 h1      2  FDE        0.0458
     44 H5          2.7562   -2.5680   -2.9361 h1      2  FDE        0.0458
     45 O1          4.5962   -0.9180   -1.9561 oh      2  FDE       -0.3905
     46 H7          2.6562   -0.2380   -2.1261 h1      2  FDE        0.0628
     47 C4          1.1162    0.4120    2.0839 c3      2  FDE        0.0639
     48 H8          2.3162    2.1720    1.7839 h1      2  FDE        0.0458
     49 H9          3.2462    0.7620    2.3139 h1      2  FDE        0.0458
     50 O2          0.8462    0.7620    3.4439 oh      2  FDE       -0.3921
     51 C2         -0.0838    0.8320    1.2039 c3      2  FDE       -0.0377
     52 H10         1.2162   -0.6780    2.0339 h1      2  FDE        0.0611
     53 H11        -0.2138    1.9220    1.2239 hc      2  FDE        0.0257
     54 H12        -1.0138    0.3720    1.5639 hc      2  FDE        0.0257
     55 H13         0.0662    0.5220    0.1639 hc      2  FDE        0.0257
     56 H14         0.7062    1.7320    3.4739 ho      2  FDE        0.2105
     57 H15         4.6162   -0.7680   -2.9161 ho      2  FDE        0.2106
     58 H16         4.5262    3.0520   -4.5561 h4      2  FDE        0.0902
     59 H17         1.8262    3.2520   -4.2461 ha      2  FDE        0.0645
     60 H18         1.3662    2.4720   -1.6661 ha      2  FDE        0.0648
     61 O          -1.8718    1.8790    2.3569 os      3  FDE       -0.3212
     62 C          -2.1588    1.5630    3.6639 cc      3  FDE        0.0455
     63 C5         -1.0428    1.3630    4.4459 cd      3  FDE       -0.0364
     64 C6         -0.4968    1.8710    2.3699 cc      3  FDE        0.0725
     65 C7          0.0582    1.5820    3.5919 cd      3  FDE       -0.0322
     66 C8          0.2842    2.2340    1.1329 c3      3  FDE        0.0457
     67 N           1.6152    1.5770    1.0589 n3      3  FDE       -0.2919
     68 H           0.3992    3.3300    1.1459 h1      3  FDE        0.0503
     69 H1         -0.3108    1.9970    0.2369 h1      3  FDE        0.0503
     70 C9          2.6712    2.4920    0.5789 c3      3  FDE        0.0245
     71 C10         1.6252    0.2500    0.3839 c3      3  FDE        0.0261
     72 C3          0.6522   -0.8090    0.9709 c3      3  FDE        0.0794
     73 H2          2.6312   -0.1800    0.4699 h1      3  FDE        0.0458
     74 H3          1.4132    0.3730   -0.6851 h1      3  FDE        0.0458
     75 C1          1.1322   -2.2470    0.6489 c3      3  FDE        0.0261
     76 H5          0.4352   -2.9800    1.0679 h1      3  FDE        0.0458
     77 H4          2.1192   -2.4230    1.0939 h1      3  FDE        0.0458
     78 O1         -0.6548   -0.6480    0.4059 oh      3  FDE       -0.3905
     79 H7          0.6172   -0.6990    2.0559 h1      3  FDE        0.0628
     80 C4          4.1162    2.0220    0.8589 c3      3  FDE        0.0639
     81 H8          2.5492    3.4730    1.0779 h1      3  FDE        0.0458
     82 H9          2.5532    2.6610   -0.5021 h1      3  FDE        0.0458
     83 O2          5.0342    3.0040    0.3969 oh      3  FDE       -0.3921
     84 C2          4.3702    1.7600    2.3679 c3      3  FDE       -0.0377
     85 H10         4.3102    1.0870    0.3139 h1      3  FDE        0.0611
     86 H11         4.1502    2.6560    2.9639 hc      3  FDE        0.0257
     87 H12         5.4142    1.4790    2.5369 hc      3  FDE        0.0257
     88 H13         3.7352    0.9430    2.7319 hc      3  FDE        0.0257
     89 H14         4.8812    3.8170    0.9259 ho      3  FDE        0.2105
     90 H15        -1.2808   -1.1440    0.9609 ho      3  FDE        0.2106
     91 H16        -3.2078    1.5060    3.9179 h4      3  FDE        0.0902
     92 H17        -1.0138    1.1180    5.4929 ha      3  FDE        0.0645
     93 H18         1.1112    1.5320    3.8449 ha      3  FDE        0.0648
@<TRIPOS>BOND
     1     1     2    1
     2     2     3    1
     3     2     4    1
     4     2     5    1
     5     3     6    1
     6     3     7    2
     7     6     8    1
     8     8     9    2
     9     7     9    1
    10     8    10    1
    11    10    11    1
    12    10    12    1
    13    10    13    1
    14    11    14    2
    15    14    15    1
    16    11    16    1
    17    16    17    1
    18    15    17    2
    19    17    18    1
    20    18    19    1
    21    18    20    1
    22    18    21    1
    23     1    22    1
    24     1    23    1
    25     7    24    1
    26     9    25    1
    27    14    26    1
    28    15    27    1
    29    28    29    1
    30    29    30    2
    31    28    31    1
    32    31    32    2
    33    30    32    1
    34    31    33    1
    35    33    34    1
    36    33    35    1
    37    33    36    1
    38    34    37    1
    39    34    38    1
    40    38    39    1
    41    38    40    1
    42    38    41    1
    43    39    42    1
    44    42    43    1
    45    42    44    1
    46    39    45    1
    47    39    46    1
    48    37    47    1
    49    37    48    1
    50    37    49    1
    51    47    50    1
    52    47    51    1
    53    47    52    1
    54    51    53    1
    55    51    54    1
    56    51    55    1
    57    50    56    1
    58    45    57    1
    59    29    58    1
    60    30    59    1
    61    32    60    1
    62    19    42    1
    63    61    62    1
    64    62    63    2
    65    61    64    1
    66    64    65    2
    67    63    65    1
    68    64    66    1
    69    66    67    1
    70    66    68    1
    71    66    69    1
    72    67    70    1
    73    67    71    1
    74    71    72    1
    75    71    73    1
    76    71    74    1
    77    72    75    1
    78    75    76    1
    79    75    77    1
    80    72    78    1
    81    72    79    1
    82    70    80    1
    83    70    81    1
    84    70    82    1
    85    80    83    1
    86    80    84    1
    87    80    85    1
    88    84    86    1
    89    84    87    1
    90    84    88    1
    91    83    89    1
    92    78    90    1
    93    62    91    1
    94    63    92    1
    95    65    93    1
    96    19    75    1
@<TRIPOS>SUBSTRUCTURE
     1 DFA          1 RESIDUE
     2 FDE          1 RESIDUE
     3 FDE          1 RESIDUE