@<TRIPOS>MOLECULE
DFAFDE-2
    61    63  2  0  0
SMALL
gas

@<TRIPOS>ATOM
      1 N1         -9.1401   -3.0909   -0.1311 n3      1  DFA       -0.3248
      2 C          -8.4701   -1.8009    0.0889 c3      1  DFA        0.0403
      3 C1         -7.0201   -1.7909   -0.3411 cc      1  DFA        0.0725
      4 H          -8.5301   -1.5309    1.1489 h1      1  DFA        0.0498
      5 H1         -9.0001   -1.0209   -0.4711 h1      1  DFA        0.0498
      6 O          -6.2101   -0.7709    0.0589 os      1  DFA       -0.3174
      7 C2         -6.4301   -2.7109   -1.1711 cd      1  DFA       -0.0319
      8 C3         -5.0401   -1.1009   -0.5811 cc      1  DFA        0.0654
      9 C4         -5.1001   -2.2409   -1.3311 cd      1  DFA       -0.0327
     10 C5         -3.8501   -0.1809   -0.5011 c3      1  DFA        0.0418
     11 C6         -2.5301   -0.8809   -0.3111 cc      1  DFA        0.0654
     12 H2         -3.9901    0.5291    0.3189 hc      1  DFA        0.0409
     13 H3         -3.8101    0.4191   -1.4211 hc      1  DFA        0.0409
     14 C7         -2.3301   -1.9709    0.5089 cd      1  DFA       -0.0327
     15 C8         -0.9301   -2.2109    0.4389 cd      1  DFA       -0.0319
     16 O1         -1.3901   -0.3809   -0.8911 os      1  DFA       -0.3174
     17 C9         -0.4501   -1.2409   -0.4011 cc      1  DFA        0.0727
     18 C10         1.0099   -1.0209   -0.7311 c3      1  DFA        0.0429
     19 N2          1.8299   -2.2309   -0.5811 n3      1  DFA       -0.3081
     20 H4          1.3999   -0.2309   -0.0711 h1      1  DFA        0.0501
     21 H5          1.0799   -0.6509   -1.7611 h1      1  DFA        0.0501
     22 H6        -10.1101   -3.0209    0.1589 hn      1  DFA        0.1188
     23 H7         -9.1401   -3.3109   -1.1211 hn      1  DFA        0.1188
     24 H8          1.8099   -2.5309    0.3889 hn      1  DFA        0.1227
     25 H10        -6.8701   -3.5909   -1.6211 ha      1  DFA        0.0648
     26 H11        -4.3201   -2.6809   -1.9411 ha      1  DFA        0.0648
     27 H12        -3.0601   -2.5109    1.0889 ha      1  DFA        0.0648
     28 H13        -0.3701   -2.9809    0.9689 ha      1  DFA        0.0648
     29 O           5.3439    3.3571   -1.6661 os      2  FDE       -0.3212
     30 C           4.6579    3.7691   -2.7851 cc      2  FDE        0.0455
     31 C3          3.2929    3.6271   -2.6831 cd      2  FDE       -0.0364
     32 C4          4.3159    2.9511   -0.8501 cc      2  FDE        0.0725
     33 C5          3.0649    3.0991   -1.3951 cd      2  FDE       -0.0322
     34 C6          4.5939    2.4631    0.5489 c3      2  FDE        0.0457
     35 N           3.5909    1.4851    1.0449 n3      2  FDE       -0.2919
     36 H           4.6079    3.3571    1.1939 h1      2  FDE        0.0503
     37 H1          5.6059    2.0331    0.5969 h1      2  FDE        0.0503
     38 C7          3.2169    1.7241    2.4549 c3      2  FDE        0.0245
     39 C8          3.9009    0.0591    0.7459 c3      2  FDE        0.0261
     40 C9          4.1279   -0.2769   -0.7531 c3      2  FDE        0.0791
     41 H2          3.0549   -0.5599    1.0729 h1      2  FDE        0.0458
     42 H3          4.7799   -0.2599    1.3189 h1      2  FDE        0.0458
     43 C1          3.8439   -1.7739   -1.0381 c3      2  FDE        0.0229
     44 H4          4.5009   -2.4209   -0.4401 h1      2  FDE        0.0456
     45 H5          4.0109   -1.9939   -2.0981 h1      2  FDE        0.0456
     46 O1          5.4879   -0.0129   -1.1191 oh      2  FDE       -0.3905
     47 H7          3.4449    0.3181   -1.3611 h1      2  FDE        0.0628
     48 C10         1.9129    1.0301    2.9089 c3      2  FDE        0.0639
     49 H8          3.0739    2.8121    2.6069 h1      2  FDE        0.0458
     50 H9          4.0389    1.4101    3.1149 h1      2  FDE        0.0458
     51 O2          1.6369    1.3761    4.2599 oh      2  FDE       -0.3921
     52 C2          0.6969    1.4201    2.0259 c3      2  FDE       -0.0377
     53 H10         2.0389   -0.0599    2.8519 h1      2  FDE        0.0611
     54 H11         0.5529    2.5101    2.0169 hc      2  FDE        0.0257
     55 H12        -0.2161    0.9541    2.4049 hc      2  FDE        0.0257
     56 H13         0.8459    1.0871    0.9909 hc      2  FDE        0.0257
     57 H14         1.4789    2.3441    4.2859 ho      2  FDE        0.2105
     58 H15         5.5349    0.0071   -2.0901 ho      2  FDE        0.2106
     59 H16         5.2629    4.1461   -3.5981 h4      2  FDE        0.0902
     60 H17         2.5519    3.8891   -3.4181 ha      2  FDE        0.0645
     61 H18         2.1109    2.8611   -0.9381 ha      2  FDE        0.0648
@<TRIPOS>BOND
     1     1     2    1
     2     2     3    1
     3     2     4    1
     4     2     5    1
     5     3     6    1
     6     3     7    2
     7     6     8    1
     8     8     9    2
     9     7     9    1
    10     8    10    1
    11    10    11    1
    12    10    12    1
    13    10    13    1
    14    11    14    2
    15    14    15    1
    16    11    16    1
    17    16    17    1
    18    15    17    2
    19    17    18    1
    20    18    19    1
    21    18    20    1
    22    18    21    1
    23     1    22    1
    24     1    23    1
    25    19    24    1
    26     7    25    1
    27     9    26    1
    28    14    27    1
    29    15    28    1
    30    29    30    1
    31    30    31    2
    32    29    32    1
    33    32    33    2
    34    31    33    1
    35    32    34    1
    36    34    35    1
    37    34    36    1
    38    34    37    1
    39    35    38    1
    40    35    39    1
    41    39    40    1
    42    39    41    1
    43    39    42    1
    44    40    43    1
    45    43    44    1
    46    43    45    1
    47    40    46    1
    48    40    47    1
    49    38    48    1
    50    38    49    1
    51    38    50    1
    52    48    51    1
    53    48    52    1
    54    48    53    1
    55    52    54    1
    56    52    55    1
    57    52    56    1
    58    51    57    1
    59    46    58    1
    60    30    59    1
    61    31    60    1
    62    33    61    1
    63    19    43    1
@<TRIPOS>SUBSTRUCTURE
     1 DFA          1 RESIDUE
     2 FDE          1 RESIDUE