@<TRIPOS>MOLECULE
DFAFDE2-5
    93    96  3  0  0
SMALL
gas

@<TRIPOS>ATOM
      1 N1         -9.0230   -1.6758   -0.9402 n3      1  DFA       -0.3248
      2 C          -8.4230   -0.3458   -0.7402 c3      1  DFA        0.0403
      3 C1         -6.9830   -0.2758   -1.1802 cc      1  DFA        0.0725
      4 H          -8.4730   -0.0958    0.3298 h1      1  DFA        0.0498
      5 H1         -9.0030    0.4042   -1.2802 h1      1  DFA        0.0498
      6 O          -6.1830    0.7442   -0.7202 os      1  DFA       -0.3174
      7 C2         -6.3830   -1.1058   -2.0902 cd      1  DFA       -0.0319
      8 C3         -5.0230    0.4842   -1.4002 cc      1  DFA        0.0654
      9 C4         -5.0630   -0.5958   -2.2402 cd      1  DFA       -0.0327
     10 C5         -3.8430    1.4142   -1.2702 c3      1  DFA        0.0418
     11 C6         -2.5130    0.7142   -1.1902 cc      1  DFA        0.0654
     12 H2         -3.9730    2.0442   -0.3702 hc      1  DFA        0.0409
     13 H3         -3.8330    2.1142   -2.1202 hc      1  DFA        0.0409
     14 C7         -2.2330   -0.3458   -0.3602 cd      1  DFA       -0.0327
     15 C8         -0.8630   -0.6258   -0.5902 cd      1  DFA       -0.0319
     16 O1         -1.4430    1.1642   -1.9202 os      1  DFA       -0.3174
     17 C9         -0.4630    0.2942   -1.5202 cc      1  DFA        0.0730
     18 C10         0.9370    0.4642   -2.0502 c3      1  DFA        0.0457
     19 N2          1.9170   -0.3958   -1.3702 n3      1  DFA       -0.2918
     20 H4          1.2070    1.5242   -1.9202 h1      1  DFA        0.0503
     21 H5          0.9370    0.2542   -3.1202 h1      1  DFA        0.0503
     22 H6         -9.9930   -1.6558   -0.6402 hn      1  DFA        0.1188
     23 H7         -9.0330   -1.8858   -1.9402 hn      1  DFA        0.1188
     24 H10        -6.8130   -1.9558   -2.6002 ha      1  DFA        0.0648
     25 H11        -4.2830   -0.9758   -2.8902 ha      1  DFA        0.0648
     26 H12        -2.9130   -0.8558    0.3198 ha      1  DFA        0.0648
     27 H13        -0.2730   -1.3958   -0.1102 ha      1  DFA        0.0648
     28 O           5.2470    4.5542   -2.5002 os      2  FDE       -0.3212
     29 C           4.5770    4.9942   -3.6102 cc      2  FDE        0.0455
     30 C5          3.2170    5.0942   -3.4402 cd      2  FDE       -0.0364
     31 C6          4.2270    4.3842   -1.6102 cc      2  FDE        0.0725
     32 C7          2.9770    4.6842   -2.1002 cd      2  FDE       -0.0322
     33 C8          4.4970    3.9442   -0.1902 c3      2  FDE        0.0457
     34 N           3.4870    2.9742    0.3098 n3      2  FDE       -0.2919
     35 H           4.4970    4.8542    0.4198 h1      2  FDE        0.0503
     36 H1          5.4970    3.5042   -0.1302 h1      2  FDE        0.0503
     37 C9          3.1070    3.2442    1.7198 c3      2  FDE        0.0245
     38 C10         3.7970    1.5542    0.0398 c3      2  FDE        0.0261
     39 C3          3.8970    1.1942   -1.4702 c3      2  FDE        0.0794
     40 H2          3.0270    0.9242    0.4898 h1      2  FDE        0.0458
     41 H3          4.7370    1.2742    0.5398 h1      2  FDE        0.0458
     42 C1          3.3270   -0.2158   -1.7802 c3      2  FDE        0.0261
     43 H4          3.9470   -0.9558   -1.2702 h1      2  FDE        0.0458
     44 H5          3.4170   -0.4058   -2.8602 h1      2  FDE        0.0458
     45 O1          5.2570    1.2442   -1.8802 oh      2  FDE       -0.3905
     46 H7          3.3170    1.9242   -2.0502 h1      2  FDE        0.0628
     47 C4          1.7770    2.5742    2.1598 c3      2  FDE        0.0639
     48 H8          2.9770    4.3342    1.8598 h1      2  FDE        0.0458
     49 H9          3.9070    2.9242    2.3898 h1      2  FDE        0.0458
     50 O2          1.5070    2.9242    3.5198 oh      2  FDE       -0.3921
     51 C2          0.5770    2.9942    1.2798 c3      2  FDE       -0.0377
     52 H10         1.8770    1.4842    2.1098 h1      2  FDE        0.0611
     53 H11         0.4470    4.0842    1.2998 hc      2  FDE        0.0257
     54 H12        -0.3530    2.5342    1.6398 hc      2  FDE        0.0257
     55 H13         0.7270    2.6842    0.2398 hc      2  FDE        0.0257
     56 H14         1.3670    3.8942    3.5498 ho      2  FDE        0.2105
     57 H15         5.2770    1.3942   -2.8402 ho      2  FDE        0.2106
     58 H16         5.1870    5.2142   -4.4802 h4      2  FDE        0.0902
     59 H17         2.4870    5.4142   -4.1702 ha      2  FDE        0.0645
     60 H18         2.0270    4.6342   -1.5902 ha      2  FDE        0.0648
     61 O          -1.3920   -5.4008   -0.0352 os      3  FDE       -0.3212
     62 C          -2.5220   -4.9578   -0.6832 cc      3  FDE        0.0455
     63 C5         -2.5310   -3.6028   -0.9222 cd      3  FDE       -0.0364
     64 C6         -0.6860   -4.2308    0.1118 cc      3  FDE        0.0725
     65 C7         -1.3080   -3.1228   -0.4102 cd      3  FDE       -0.0322
     66 C8          0.6870   -4.2348    0.7328 c3      3  FDE        0.0457
     67 N           1.0320   -2.9618    1.4178 n3      3  FDE       -0.2919
     68 H           1.3990   -4.4348   -0.0852 h1      3  FDE        0.0503
     69 H1          0.7740   -5.0818    1.4308 h1      3  FDE        0.0503
     70 C9          2.4250   -2.5408    1.1598 c3      3  FDE        0.0261
     71 C10         0.6460   -2.8958    2.8538 c3      3  FDE        0.0245
     72 C3         -0.8540   -3.1578    3.1588 c3      3  FDE        0.0639
     73 H2          0.8620   -1.8868    3.2298 h1      3  FDE        0.0458
     74 H3          1.2550   -3.5978    3.4368 h1      3  FDE        0.0458
     75 C1         -1.2740   -2.5028    4.4988 c3      3  FDE       -0.0377
     76 H4         -0.6830   -2.8998    5.3348 hc      3  FDE        0.0257
     77 H5         -2.3330   -2.6988    4.6988 hc      3  FDE        0.0257
     78 H6         -1.1330   -1.4158    4.4468 hc      3  FDE        0.0257
     79 O1         -1.0990   -4.5658    3.2658 oh      3  FDE       -0.3921
     80 H7         -1.4620   -2.7228    2.3638 h1      3  FDE        0.0611
     81 C4          2.7280   -1.0618    1.4858 c3      3  FDE        0.0794
     82 H8          2.6500   -2.6878    0.0858 h1      3  FDE        0.0458
     83 H9          3.1170   -3.1818    1.7268 h1      3  FDE        0.0458
     84 O2          4.0780   -0.7678    1.1518 oh      3  FDE       -0.3905
     85 C2          1.7920   -0.0848    0.7248 c3      3  FDE        0.0261
     86 H10         2.5960   -0.8888    2.5638 h1      3  FDE        0.0628
     87 H12         2.0670    0.9532    0.9378 h1      3  FDE        0.0458
     88 H11         0.7480   -0.2298    1.0298 h1      3  FDE        0.0458
     89 H14         4.1680   -0.8798    0.1808 ho      3  FDE        0.2106
     90 H15        -2.0600   -4.7048    3.2058 ho      3  FDE        0.2105
     91 H16        -3.2570   -5.7148   -0.9202 h4      3  FDE        0.0902
     92 H17        -3.2950   -3.0328   -1.4202 ha      3  FDE        0.0645
     93 H18        -0.9410   -2.1018   -0.4232 ha      3  FDE        0.0648
@<TRIPOS>BOND
     1     1     2    1
     2     2     3    1
     3     2     4    1
     4     2     5    1
     5     3     6    1
     6     3     7    2
     7     6     8    1
     8     8     9    2
     9     7     9    1
    10     8    10    1
    11    10    11    1
    12    10    12    1
    13    10    13    1
    14    11    14    2
    15    14    15    1
    16    11    16    1
    17    16    17    1
    18    15    17    2
    19    17    18    1
    20    18    19    1
    21    18    20    1
    22    18    21    1
    23     1    22    1
    24     1    23    1
    25     7    24    1
    26     9    25    1
    27    14    26    1
    28    15    27    1
    29    28    29    1
    30    29    30    2
    31    28    31    1
    32    31    32    2
    33    30    32    1
    34    31    33    1
    35    33    34    1
    36    33    35    1
    37    33    36    1
    38    34    37    1
    39    34    38    1
    40    38    39    1
    41    38    40    1
    42    38    41    1
    43    39    42    1
    44    42    43    1
    45    42    44    1
    46    39    45    1
    47    39    46    1
    48    37    47    1
    49    37    48    1
    50    37    49    1
    51    47    50    1
    52    47    51    1
    53    47    52    1
    54    51    53    1
    55    51    54    1
    56    51    55    1
    57    50    56    1
    58    45    57    1
    59    29    58    1
    60    30    59    1
    61    32    60    1
    62    19    42    1
    63    61    62    1
    64    62    63    2
    65    61    64    1
    66    64    65    2
    67    63    65    1
    68    64    66    1
    69    66    67    1
    70    66    68    1
    71    66    69    1
    72    67    70    1
    73    67    71    1
    74    71    72    1
    75    71    73    1
    76    71    74    1
    77    72    75    1
    78    75    76    1
    79    75    77    1
    80    75    78    1
    81    72    79    1
    82    72    80    1
    83    70    81    1
    84    70    82    1
    85    70    83    1
    86    81    84    1
    87    81    85    1
    88    81    86    1
    89    85    87    1
    90    85    88    1
    91    84    89    1
    92    79    90    1
    93    62    91    1
    94    63    92    1
    95    65    93    1
    96    19    85    1
@<TRIPOS>SUBSTRUCTURE
     1 DFA          1 RESIDUE
     2 FDE          1 RESIDUE
     3 FDE          1 RESIDUE