@<TRIPOS>MOLECULE
DFAFDE-3
    61    63  2  0  0
SMALL
gas

@<TRIPOS>ATOM
      1 N1         -8.7268   -2.5262    0.4850 n3      1  DFA       -0.3248
      2 C          -8.0568   -1.2262    0.7060 c3      1  DFA        0.0403
      3 C1         -6.6168   -1.2262    0.2760 cc      1  DFA        0.0725
      4 H          -8.1168   -0.9662    1.7660 h1      1  DFA        0.0498
      5 H1         -8.5868   -0.4462    0.1360 h1      1  DFA        0.0498
      6 O          -5.7968   -0.2062    0.6750 os      1  DFA       -0.3174
      7 C2         -6.0168   -2.1462   -0.5440 cd      1  DFA       -0.0319
      8 C3         -4.6268   -0.5362    0.0350 cc      1  DFA        0.0654
      9 C4         -4.6868   -1.6862   -0.7150 cd      1  DFA       -0.0327
     10 C5         -3.4368    0.3838    0.1160 c3      1  DFA        0.0418
     11 C6         -2.1168   -0.3262    0.3050 cc      1  DFA        0.0654
     12 H2         -3.5768    1.0938    0.9350 hc      1  DFA        0.0409
     13 H3         -3.3968    0.9838   -0.8040 hc      1  DFA        0.0409
     14 C7         -1.9068   -1.4062    1.1150 cd      1  DFA       -0.0327
     15 C8         -0.5168   -1.6462    1.0560 cd      1  DFA       -0.0319
     16 O1         -0.9768    0.1838   -0.2750 os      1  DFA       -0.3174
     17 C9         -0.0268   -0.6762    0.2150 cc      1  DFA        0.0727
     18 C10         1.4232   -0.4462   -0.1150 c3      1  DFA        0.0429
     19 N2          2.2432   -1.6562    0.0350 n3      1  DFA       -0.3081
     20 H4          1.8132    0.3438    0.5450 h1      1  DFA        0.0501
     21 H5          1.5032   -0.0862   -1.1450 h1      1  DFA        0.0501
     22 H6         -9.7068   -2.4462    0.7750 hn      1  DFA        0.1188
     23 H7         -8.7368   -2.7462   -0.5040 hn      1  DFA        0.1188
     24 H8          3.2232   -1.4362   -0.1740 hn      1  DFA        0.1227
     25 H10        -6.4668   -3.0262   -1.0040 ha      1  DFA        0.0648
     26 H11        -3.9068   -2.1262   -1.3150 ha      1  DFA        0.0648
     27 H12        -2.6468   -1.9562    1.6960 ha      1  DFA        0.0648
     28 H13         0.0432   -2.4162    1.5750 ha      1  DFA        0.0648
     29 O           1.5472    3.9378   -0.7810 os      2  FDE       -0.3212
     30 C           0.5322    3.8238   -1.7020 cc      2  FDE        0.0455
     31 C3          0.0622    2.5388   -1.8550 cd      2  FDE       -0.0364
     32 C4          1.6802    2.6368   -0.3600 cc      2  FDE        0.0725
     33 C5          0.8122    1.7548   -0.9550 cd      2  FDE       -0.0322
     34 C6          2.6622    2.2778    0.7260 c3      2  FDE        0.0457
     35 N           3.1792    0.8888    0.6220 n3      2  FDE       -0.2919
     36 H           2.1352    2.4198    1.6830 h1      2  FDE        0.0503
     37 H1          3.4952    2.9978    0.7230 h1      2  FDE        0.0503
     38 C7          3.2642    0.2178    1.9370 c3      2  FDE        0.0261
     39 C8          4.4062    0.7328   -0.2060 c3      2  FDE        0.0245
     40 C9          4.3052    1.2668   -1.6610 c3      2  FDE        0.0639
     41 H2          4.6412   -0.3362   -0.2880 h1      2  FDE        0.0458
     42 H3          5.2562    1.2168    0.2910 h1      2  FDE        0.0458
     43 C1          5.3272    0.5588   -2.5870 c3      2  FDE       -0.0377
     44 H4          6.3552    0.7188   -2.2360 hc      2  FDE        0.0257
     45 H5          5.2442    0.9468   -3.6070 hc      2  FDE        0.0257
     46 H6          5.1252   -0.5192   -2.6150 hc      2  FDE        0.0257
     47 O1          4.5872    2.6708   -1.6940 oh      2  FDE       -0.3921
     48 H7          3.3042    1.0668   -2.0470 h1      2  FDE        0.0611
     49 C10         3.3942   -1.3202    1.8750 c3      2  FDE        0.0791
     50 H8          2.3452    0.4408    2.5130 h1      2  FDE        0.0458
     51 H9          4.1122    0.6258    2.5070 h1      2  FDE        0.0458
     52 O2          3.4182   -1.8492    3.1940 oh      2  FDE       -0.3905
     53 C2          2.2322   -1.9812    1.0840 c3      2  FDE        0.0229
     54 H10         4.3382   -1.5892    1.3800 h1      2  FDE        0.0628
     55 H11         1.2602   -1.7082    1.5160 h1      2  FDE        0.0456
     56 H12         2.3272   -3.0702    1.1030 h1      2  FDE        0.0456
     57 H14         2.5502   -1.6432    3.6050 ho      2  FDE        0.2106
     58 H15         4.2782    3.0148   -2.5500 ho      2  FDE        0.2105
     59 H16         0.2312    4.7408   -2.1900 h4      2  FDE        0.0902
     60 H17        -0.7298    2.2058   -2.5040 ha      2  FDE        0.0645
     61 H18         0.7232    0.6888   -0.7740 ha      2  FDE        0.0648
@<TRIPOS>BOND
     1     1     2    1
     2     2     3    1
     3     2     4    1
     4     2     5    1
     5     3     6    1
     6     3     7    2
     7     6     8    1
     8     8     9    2
     9     7     9    1
    10     8    10    1
    11    10    11    1
    12    10    12    1
    13    10    13    1
    14    11    14    2
    15    14    15    1
    16    11    16    1
    17    16    17    1
    18    15    17    2
    19    17    18    1
    20    18    19    1
    21    18    20    1
    22    18    21    1
    23     1    22    1
    24     1    23    1
    25    19    24    1
    26     7    25    1
    27     9    26    1
    28    14    27    1
    29    15    28    1
    30    29    30    1
    31    30    31    2
    32    29    32    1
    33    32    33    2
    34    31    33    1
    35    32    34    1
    36    34    35    1
    37    34    36    1
    38    34    37    1
    39    35    38    1
    40    35    39    1
    41    39    40    1
    42    39    41    1
    43    39    42    1
    44    40    43    1
    45    43    44    1
    46    43    45    1
    47    43    46    1
    48    40    47    1
    49    40    48    1
    50    38    49    1
    51    38    50    1
    52    38    51    1
    53    49    52    1
    54    49    53    1
    55    49    54    1
    56    53    55    1
    57    53    56    1
    58    52    57    1
    59    47    58    1
    60    30    59    1
    61    31    60    1
    62    33    61    1
    63    19    53    1
@<TRIPOS>SUBSTRUCTURE
     1 DFA          1 RESIDUE
     2 FDE          1 RESIDUE