@<TRIPOS>MOLECULE
DFAFDE-1
    61    63  2  0  0
SMALL
gas

@<TRIPOS>ATOM
      1 N1         -1.7858   -2.4390    0.3000 n3      1  DFA       -0.3081
      2 C          -1.1158   -1.1390    0.5200 c3      1  DFA        0.0429
      3 C1          0.3242   -1.1390    0.0900 cc      1  DFA        0.0727
      4 H          -1.1758   -0.8790    1.5800 h1      1  DFA        0.0501
      5 H1         -1.6458   -0.3590   -0.0500 h1      1  DFA        0.0501
      6 O           1.1442   -0.1190    0.4900 os      1  DFA       -0.3174
      7 C2          0.9242   -2.0590   -0.7300 cd      1  DFA       -0.0319
      8 C3          2.3142   -0.4490   -0.1500 cc      1  DFA        0.0654
      9 C4          2.2542   -1.5990   -0.9000 cd      1  DFA       -0.0327
     10 C5          3.5042    0.4710   -0.0700 c3      1  DFA        0.0418
     11 C6          4.8242   -0.2390    0.1200 cc      1  DFA        0.0654
     12 H2          3.3642    1.1810    0.7500 hc      1  DFA        0.0409
     13 H3          3.5442    1.0710   -0.9900 hc      1  DFA        0.0409
     14 C7          5.0342   -1.3190    0.9300 cd      1  DFA       -0.0327
     15 C8          6.4242   -1.5590    0.8700 cd      1  DFA       -0.0319
     16 O1          5.9642    0.2710   -0.4600 os      1  DFA       -0.3174
     17 C9          6.9142   -0.5890    0.0300 cc      1  DFA        0.0725
     18 C10         8.3642   -0.3590   -0.3000 c3      1  DFA        0.0403
     19 N2          9.1842   -1.5690   -0.1500 n3      1  DFA       -0.3248
     20 H4          8.7542    0.4310    0.3600 h1      1  DFA        0.0498
     21 H5          8.4442    0.0010   -1.3300 h1      1  DFA        0.0498
     22 H6         -1.7958   -2.6590   -0.6900 hn      1  DFA        0.1227
     23 H8          9.1742   -1.8690    0.8200 hn      1  DFA        0.1188
     24 H9         10.1642   -1.3490   -0.3600 hn      1  DFA        0.1188
     25 H10         0.4742   -2.9390   -1.1900 ha      1  DFA        0.0648
     26 H11         3.0342   -2.0390   -1.5000 ha      1  DFA        0.0648
     27 H12         4.2942   -1.8690    1.5100 ha      1  DFA        0.0648
     28 H13         6.9842   -2.3290    1.3900 ha      1  DFA        0.0648
     29 O          -1.3978    3.5310   -0.9010 os      2  FDE       -0.3212
     30 C          -0.5378    3.8770    0.1150 cc      2  FDE        0.0455
     31 C3         -0.3128    2.8660    1.0220 cd      2  FDE       -0.0364
     32 C4         -1.6948    2.2300   -0.5740 cc      2  FDE        0.0725
     33 C5         -1.0678    1.7700    0.5570 cd      2  FDE       -0.0322
     34 C6         -2.5828    1.3990   -1.4650 c3      2  FDE        0.0457
     35 N          -3.3348    0.3450   -0.7350 n3      2  FDE       -0.2919
     36 H          -1.9268    0.9440   -2.2240 h1      2  FDE        0.0503
     37 H1         -3.2768    2.0550   -2.0120 h1      2  FDE        0.0503
     38 C7         -3.3698   -0.9370   -1.4710 c3      2  FDE        0.0261
     39 C8         -4.6628    0.7670   -0.2110 c3      2  FDE        0.0245
     40 C9         -4.6528    2.0130    0.7170 c3      2  FDE        0.0639
     41 H2         -5.0828   -0.0530    0.3840 h1      2  FDE        0.0458
     42 H3         -5.3518    0.9510   -1.0450 h1      2  FDE        0.0458
     43 C1         -5.8848    2.0180    1.6570 c3      2  FDE       -0.0377
     44 H4         -6.8208    2.0290    1.0820 hc      2  FDE        0.0257
     45 H5         -5.8638    2.9020    2.3030 hc      2  FDE        0.0257
     46 H6         -5.8718    1.1280    2.2990 hc      2  FDE        0.0257
     47 O1         -4.6958    3.2130   -0.0650 oh      2  FDE       -0.3921
     48 H7         -3.7548    1.9900    1.3360 h1      2  FDE        0.0611
     49 C10        -3.7638   -2.1640   -0.6200 c3      2  FDE        0.0791
     50 H8         -2.3628   -1.1400   -1.8840 h1      2  FDE        0.0458
     51 H9         -4.0608   -0.8560   -2.3230 h1      2  FDE        0.0458
     52 O2         -3.7138   -3.3360   -1.4230 oh      2  FDE       -0.3905
     53 C2         -2.8358   -2.3530    0.6110 c3      2  FDE        0.0229
     54 H10        -4.7928   -2.0430   -0.2530 h1      2  FDE        0.0628
     55 H11        -3.1088   -3.2580    1.1610 h1      2  FDE        0.0456
     56 H12        -2.9208   -1.5000    1.2950 h1      2  FDE        0.0456
     57 H14        -2.7808   -3.4580   -1.7020 ho      2  FDE        0.2106
     58 H15        -4.4408    3.9520    0.5130 ho      2  FDE        0.2105
     59 H16        -0.1488    4.8860    0.0820 h4      2  FDE        0.0902
     60 H17         0.3262    2.8950    1.8870 ha      2  FDE        0.0645
     61 H18        -1.1378    0.7810    0.9980 ha      2  FDE        0.0648
@<TRIPOS>BOND
     1     1     2    1
     2     2     3    1
     3     2     4    1
     4     2     5    1
     5     3     6    1
     6     3     7    2
     7     6     8    1
     8     8     9    2
     9     7     9    1
    10     8    10    1
    11    10    11    1
    12    10    12    1
    13    10    13    1
    14    11    14    2
    15    14    15    1
    16    11    16    1
    17    16    17    1
    18    15    17    2
    19    17    18    1
    20    18    19    1
    21    18    20    1
    22    18    21    1
    23     1    22    1
    24    19    23    1
    25    19    24    1
    26     7    25    1
    27     9    26    1
    28    14    27    1
    29    15    28    1
    30    29    30    1
    31    30    31    2
    32    29    32    1
    33    32    33    2
    34    31    33    1
    35    32    34    1
    36    34    35    1
    37    34    36    1
    38    34    37    1
    39    35    38    1
    40    35    39    1
    41    39    40    1
    42    39    41    1
    43    39    42    1
    44    40    43    1
    45    43    44    1
    46    43    45    1
    47    43    46    1
    48    40    47    1
    49    40    48    1
    50    38    49    1
    51    38    50    1
    52    38    51    1
    53    49    52    1
    54    49    53    1
    55    49    54    1
    56    53    55    1
    57    53    56    1
    58    52    57    1
    59    47    58    1
    60    30    59    1
    61    31    60    1
    62    33    61    1
    63     1    53    1
@<TRIPOS>SUBSTRUCTURE
     1 DFA          1 RESIDUE
     2 FDE          1 RESIDUE