@<TRIPOS>MOLECULE
DFAFDE2-6
    93    96  3  0  0
SMALL
gas

@<TRIPOS>ATOM
      1 N1        -10.7392   -1.9881   -0.2499 n3      1  DFA       -0.3248
      2 C         -10.0692   -0.6981   -0.0499 c3      1  DFA        0.0403
      3 C1         -8.6192   -0.7081   -0.4899 cc      1  DFA        0.0725
      4 H         -10.1092   -0.4281    1.0101 h1      1  DFA        0.0498
      5 H1        -10.5992    0.0819   -0.6099 h1      1  DFA        0.0498
      6 O          -7.7792    0.2919   -0.0599 os      1  DFA       -0.3174
      7 C2         -8.0592   -1.5981   -1.3699 cd      1  DFA       -0.0319
      8 C3         -6.6292   -0.0381   -0.7299 cc      1  DFA        0.0654
      9 C4         -6.7192   -1.1481   -1.5299 cd      1  DFA       -0.0327
     10 C5         -5.4292    0.8719   -0.6599 c3      1  DFA        0.0418
     11 C6         -4.1092    0.1719   -0.5399 cc      1  DFA        0.0654
     12 H2         -5.5492    1.5519    0.2001 hc      1  DFA        0.0409
     13 H3         -5.4192    1.5119   -1.5499 hc      1  DFA        0.0409
     14 C7         -3.8492   -0.8881    0.3001 cd      1  DFA       -0.0327
     15 C8         -2.4492   -1.1081    0.1801 cd      1  DFA       -0.0319
     16 O1         -3.0092    0.6719   -1.1899 os      1  DFA       -0.3174
     17 C9         -2.0192   -0.1581   -0.7099 cc      1  DFA        0.0730
     18 C10        -0.5792    0.1219   -1.0799 c3      1  DFA        0.0457
     19 N2          0.3508   -0.9581   -0.7099 n3      1  DFA       -0.2918
     20 H4         -0.2792    1.0519   -0.5799 h1      1  DFA        0.0503
     21 H5         -0.5292    0.2919   -2.1599 h1      1  DFA        0.0503
     22 H6        -11.7092   -1.9181    0.0501 hn      1  DFA        0.1188
     23 H7        -10.7592   -2.2181   -1.2399 hn      1  DFA        0.1188
     24 H10        -8.5292   -2.4381   -1.8599 ha      1  DFA        0.0648
     25 H11        -5.9592   -1.5681   -2.1799 ha      1  DFA        0.0648
     26 H12        -4.5492   -1.4181    0.9401 ha      1  DFA        0.0648
     27 H13        -1.8592   -1.8481    0.7101 ha      1  DFA        0.0648
     28 O           7.2108    0.6119   -4.0599 os      2  FDE       -0.3212
     29 C           6.8708    1.5519   -4.9999 cc      2  FDE        0.0455
     30 C5          5.5608    1.9519   -4.9399 cd      2  FDE       -0.0364
     31 C6          6.0208    0.4419   -3.4099 cc      2  FDE        0.0725
     32 C7          4.9908    1.2219   -3.8799 cd      2  FDE       -0.0322
     33 C8          5.9208   -0.4781   -2.2199 c3      2  FDE        0.0457
     34 N           4.6108   -1.1781   -2.1099 n3      2  FDE       -0.2919
     35 H           6.0908    0.1419   -1.3399 h1      2  FDE        0.0503
     36 H1          6.7408   -1.2081   -2.2399 h1      2  FDE        0.0503
     37 C9          4.2108   -1.3381   -0.6899 c3      2  FDE        0.0261
     38 C10         4.5008   -2.4481   -2.8899 c3      2  FDE        0.0245
     39 C3          4.8808   -2.3681   -4.3899 c3      2  FDE        0.0639
     40 H2          3.4608   -2.7981   -2.8399 h1      2  FDE        0.0458
     41 H3          5.1208   -3.2281   -2.4199 h1      2  FDE        0.0458
     42 C1          4.2008   -3.4981   -5.1899 c3      2  FDE       -0.0377
     43 H4          4.5008   -4.4881   -4.8199 hc      2  FDE        0.0257
     44 H5          4.4708   -3.4381   -6.2499 hc      2  FDE        0.0257
     45 H6          3.1108   -3.4281   -5.1199 hc      2  FDE        0.0257
     46 O1          6.2908   -2.5081   -4.5499 oh      2  FDE       -0.3921
     47 H7          4.5308   -1.4081   -4.7899 h1      2  FDE        0.0611
     48 C4          2.7208   -1.7281   -0.4699 c3      2  FDE        0.0794
     49 H8          4.3808   -0.3981   -0.1599 h1      2  FDE        0.0458
     50 H9          4.8408   -2.0981   -0.2199 h1      2  FDE        0.0458
     51 O2          2.5108   -1.9081    0.9401 oh      2  FDE       -0.3905
     52 C2          1.7508   -0.6381   -0.9999 c3      2  FDE        0.0261
     53 H10         2.5008   -2.6781   -0.9699 h1      2  FDE        0.0628
     54 H11         2.0208    0.3219   -0.5499 h1      2  FDE        0.0458
     55 H12         1.8908   -0.5481   -2.0899 h1      2  FDE        0.0458
     56 H14         2.6708   -1.0481    1.3701 ho      2  FDE        0.2106
     57 H15         6.5208   -2.1781   -5.4399 ho      2  FDE        0.2105
     58 H16         7.6708    1.8719   -5.6599 h4      2  FDE        0.0902
     59 H17         5.0708    2.6919   -5.5699 ha      2  FDE        0.0645
     60 H18         3.9708    1.2719   -3.5099 ha      2  FDE        0.0648
     61 O          -3.2132    1.7579    4.1751 os      3  FDE       -0.3212
     62 C          -3.4942    1.0139    5.2961 cc      3  FDE        0.0455
     63 C5         -2.3792    0.6569    6.0211 cd      3  FDE       -0.0364
     64 C6         -1.8442    1.8499    4.2451 cc      3  FDE        0.0725
     65 C7         -1.2872    1.2239    5.3331 cd      3  FDE       -0.0322
     66 C8         -1.0752    2.6519    3.2261 c3      3  FDE        0.0457
     67 N           0.3078    2.1579    3.0031 n3      3  FDE       -0.2919
     68 H          -1.0562    3.6899    3.5951 h1      3  FDE        0.0503
     69 H1         -1.6322    2.6739    2.2761 h1      3  FDE        0.0503
     70 C9          1.2898    3.2559    2.8901 c3      3  FDE        0.0245
     71 C10         0.4448    1.1249    1.9391 c3      3  FDE        0.0261
     72 C3         -0.4442   -0.1371    2.1111 c3      3  FDE        0.0794
     73 H2          1.4818    0.7689    1.9261 h1      3  FDE        0.0458
     74 H3          0.2408    1.5719    0.9581 h1      3  FDE        0.0458
     75 C1          0.1638   -1.3521    1.3651 c3      3  FDE        0.0261
     76 H5         -0.4752   -2.2331    1.4951 h1      3  FDE        0.0458
     77 H4          1.1548   -1.5871    1.7731 h1      3  FDE        0.0458
     78 O1         -1.7502    0.0989    1.5701 oh      3  FDE       -0.3905
     79 H7         -0.5072   -0.3881    3.1711 h1      3  FDE        0.0628
     80 C4          2.7648    2.8319    3.0671 c3      3  FDE        0.0639
     81 H8          1.0748    4.0109    3.6711 h1      3  FDE        0.0458
     82 H9          1.1758    3.7559    1.9161 h1      3  FDE        0.0458
     83 O2          3.6028    3.9779    2.9861 oh      3  FDE       -0.3921
     84 C2          3.0148    2.1149    4.4221 c3      3  FDE       -0.0377
     85 H10         3.0478    2.1419    2.2601 h1      3  FDE        0.0611
     86 H11         2.7078    2.7509    5.2641 hc      3  FDE        0.0257
     87 H12         4.0758    1.8749    4.5381 hc      3  FDE        0.0257
     88 H13         2.4458    1.1789    4.4761 hc      3  FDE        0.0257
     89 H14         3.3708    4.5609    3.7411 ho      3  FDE        0.2105
     90 H15        -2.3402   -0.5961    1.9091 ho      3  FDE        0.2106
     91 H16        -4.5392    0.7989    5.4721 h4      3  FDE        0.0902
     92 H17        -2.3482    0.0889    6.9351 ha      3  FDE        0.0645
     93 H18        -0.2372    1.1739    5.6021 ha      3  FDE        0.0648
@<TRIPOS>BOND
     1     1     2    1
     2     2     3    1
     3     2     4    1
     4     2     5    1
     5     3     6    1
     6     3     7    2
     7     6     8    1
     8     8     9    2
     9     7     9    1
    10     8    10    1
    11    10    11    1
    12    10    12    1
    13    10    13    1
    14    11    14    2
    15    14    15    1
    16    11    16    1
    17    16    17    1
    18    15    17    2
    19    17    18    1
    20    18    19    1
    21    18    20    1
    22    18    21    1
    23     1    22    1
    24     1    23    1
    25     7    24    1
    26     9    25    1
    27    14    26    1
    28    15    27    1
    29    28    29    1
    30    29    30    2
    31    28    31    1
    32    31    32    2
    33    30    32    1
    34    31    33    1
    35    33    34    1
    36    33    35    1
    37    33    36    1
    38    34    37    1
    39    34    38    1
    40    38    39    1
    41    38    40    1
    42    38    41    1
    43    39    42    1
    44    42    43    1
    45    42    44    1
    46    42    45    1
    47    39    46    1
    48    39    47    1
    49    37    48    1
    50    37    49    1
    51    37    50    1
    52    48    51    1
    53    48    52    1
    54    48    53    1
    55    52    54    1
    56    52    55    1
    57    51    56    1
    58    46    57    1
    59    29    58    1
    60    30    59    1
    61    32    60    1
    62    19    52    1
    63    61    62    1
    64    62    63    2
    65    61    64    1
    66    64    65    2
    67    63    65    1
    68    64    66    1
    69    66    67    1
    70    66    68    1
    71    66    69    1
    72    67    70    1
    73    67    71    1
    74    71    72    1
    75    71    73    1
    76    71    74    1
    77    72    75    1
    78    75    76    1
    79    75    77    1
    80    72    78    1
    81    72    79    1
    82    70    80    1
    83    70    81    1
    84    70    82    1
    85    80    83    1
    86    80    84    1
    87    80    85    1
    88    84    86    1
    89    84    87    1
    90    84    88    1
    91    83    89    1
    92    78    90    1
    93    62    91    1
    94    63    92    1
    95    65    93    1
    96    19    75    1
@<TRIPOS>SUBSTRUCTURE
     1 DFA          1 RESIDUE
     2 FDE          1 RESIDUE
     3 FDE          1 RESIDUE