@<TRIPOS>MOLECULE
DFAFDE2-2
    93    96  3  0  0
SMALL
gas

@<TRIPOS>ATOM
      1 N1          0.2501   -0.7568    0.9322 n3      1  DFA       -0.2918
      2 C           0.9801    0.5232    1.0422 c3      1  DFA        0.0457
      3 C1          2.4501    0.4332    0.6822 cc      1  DFA        0.0730
      4 H           0.9101    0.8932    2.0722 h1      1  DFA        0.0503
      5 H1          0.5301    1.2832    0.3922 h1      1  DFA        0.0503
      6 O           3.3001    1.4232    1.0922 os      1  DFA       -0.3174
      7 C2          3.0101   -0.5068   -0.1578 cd      1  DFA       -0.0319
      8 C3          4.4601    1.0532    0.4522 cc      1  DFA        0.0654
      9 C4          4.3501   -0.0868   -0.3078 cd      1  DFA       -0.0327
     10 C5          5.6601    1.9632    0.4822 c3      1  DFA        0.0418
     11 C6          6.9801    1.2732    0.6622 cc      1  DFA        0.0654
     12 H2          5.5301    2.7032    1.2822 hc      1  DFA        0.0409
     13 H3          5.6801    2.5432   -0.4478 hc      1  DFA        0.0409
     14 C7          7.2101    0.2232    1.5222 cd      1  DFA       -0.0327
     15 C8          8.6101    0.0032    1.4522 cd      1  DFA       -0.0319
     16 O1          8.1101    1.7632    0.0422 os      1  DFA       -0.3174
     17 C9          9.0701    0.9432    0.5622 cc      1  DFA        0.0725
     18 C10        10.5201    1.1932    0.2222 c3      1  DFA        0.0403
     19 N2         11.3601   -0.0168    0.3522 n3      1  DFA       -0.3248
     20 H4         10.9101    1.9732    0.8822 h1      1  DFA        0.0498
     21 H5         10.5801    1.5632   -0.8078 h1      1  DFA        0.0498
     22 H8         11.3601   -0.3268    1.3222 hn      1  DFA        0.1188
     23 H9         12.3201    0.2132    0.1222 hn      1  DFA        0.1188
     24 H10         2.5201   -1.3468   -0.6378 ha      1  DFA        0.0648
     25 H11         5.1101   -0.5368   -0.9378 ha      1  DFA        0.0648
     26 H12         6.5001   -0.2968    2.1422 ha      1  DFA        0.0648
     27 H13         9.1901   -0.7168    2.0122 ha      1  DFA        0.0648
     28 O          -6.9299   -1.8868    3.8222 os      2  FDE       -0.3212
     29 C          -6.6699   -2.4068    5.0622 cc      2  FDE        0.0455
     30 C5         -5.3399   -2.4368    5.3922 cd      2  FDE       -0.0364
     31 C6         -5.6699   -1.5968    3.3722 cc      2  FDE        0.0725
     32 C7         -4.6699   -1.8868    4.2622 cd      2  FDE       -0.0322
     33 C8         -5.4699   -0.9168    2.0422 c3      2  FDE        0.0457
     34 N          -4.2099   -1.3168    1.3622 n3      2  FDE       -0.2919
     35 H          -5.4599    0.1632    2.2522 h1      2  FDE        0.0503
     36 H1         -6.3299   -1.1068    1.3922 h1      2  FDE        0.0503
     37 C9         -3.5999   -0.1568    0.6622 c3      2  FDE        0.0261
     38 C10        -4.3099   -2.5268    0.5022 c3      2  FDE        0.0245
     39 C3         -4.8999   -3.7968    1.1822 c3      2  FDE        0.0639
     40 H2         -3.3099   -2.7868    0.1422 h1      2  FDE        0.0458
     41 H3         -4.9199   -2.3068   -0.3878 h1      2  FDE        0.0458
     42 C1         -4.4299   -5.0768    0.4722 c3      2  FDE       -0.0377
     43 H4         -4.7599   -5.0868   -0.5778 hc      2  FDE        0.0257
     44 H5         -4.8299   -5.9668    0.9722 hc      2  FDE        0.0257
     45 H6         -3.3299   -5.1568    0.4822 hc      2  FDE        0.0257
     46 O1         -6.3199   -3.7668    1.1522 oh      2  FDE       -0.3921
     47 H7         -4.5399   -3.8368    2.2222 h1      2  FDE        0.0611
     48 C4         -2.1499   -0.3568    0.1622 c3      2  FDE        0.0794
     49 H8         -3.5899    0.7032    1.3422 h1      2  FDE        0.0458
     50 H9         -4.2299    0.1232   -0.1978 h1      2  FDE        0.0458
     51 O2         -1.7499    0.8332   -0.5078 oh      2  FDE       -0.3905
     52 C2         -1.1699   -0.7068    1.3222 c3      2  FDE        0.0261
     53 H10        -2.1199   -1.1768   -0.5678 h1      2  FDE        0.0628
     54 H11        -1.3099   -0.0068    2.1522 h1      2  FDE        0.0458
     55 H12        -1.4599   -1.6968    1.6922 h1      2  FDE        0.0458
     56 H14        -1.7499    1.5632    0.1422 ho      2  FDE        0.2106
     57 H15        -6.6499   -4.4068    1.8122 ho      2  FDE        0.2105
     58 H16        -7.5399   -2.7268    5.6422 h4      2  FDE        0.0902
     59 H17        -4.8899   -2.7868    6.3122 ha      2  FDE        0.0645
     60 H18        -3.6099   -1.7168    4.1522 ha      2  FDE        0.0648
     61 O          -2.5459    0.4772   -5.0178 os      3  FDE       -0.3212
     62 C          -3.8359    0.1592   -4.6628 cc      3  FDE        0.0455
     63 C5         -4.2079    0.6422   -3.4288 cd      3  FDE       -0.0364
     64 C6         -2.1329    1.2002   -3.9238 cc      3  FDE        0.0725
     65 C7         -3.0859    1.3452   -2.9458 cd      3  FDE       -0.0322
     66 C8         -0.7609    1.8252   -3.8908 c3      3  FDE        0.0457
     67 N          -0.2099    1.9702   -2.5178 n3      3  FDE       -0.2919
     68 H          -0.8549    2.8122   -4.3708 h1      3  FDE        0.0503
     69 H1         -0.0729    1.2392   -4.5198 h1      3  FDE        0.0503
     70 C9          0.4721    3.2652   -2.3168 c3      3  FDE        0.0245
     71 C10         0.5731    0.8022   -2.0268 c3      3  FDE        0.0261
     72 C3         -0.1689   -0.5618   -2.0528 c3      3  FDE        0.0794
     73 H2          0.8491    0.9802   -0.9788 h1      3  FDE        0.0458
     74 H3          1.5051    0.7112   -2.5978 h1      3  FDE        0.0458
     75 C1          0.4371   -1.5458   -1.0208 c3      3  FDE        0.0261
     76 H4          1.5001   -1.7318   -1.2298 h1      3  FDE        0.0458
     77 H5         -0.0959   -2.5028   -1.0528 h1      3  FDE        0.0458
     78 O1         -0.0549   -1.1628   -3.3488 oh      3  FDE       -0.3905
     79 H7         -1.2169   -0.4038   -1.7938 h1      3  FDE        0.0628
     80 C4          0.7031    3.6562   -0.8398 c3      3  FDE        0.0639
     81 H8         -0.1419    4.0672   -2.7708 h1      3  FDE        0.0458
     82 H9          1.4391    3.2612   -2.8418 h1      3  FDE        0.0458
     83 O2          1.3191    4.9372   -0.7778 oh      3  FDE       -0.3921
     84 C2         -0.6159    3.6872   -0.0228 c3      3  FDE       -0.0377
     85 H10         1.3781    2.9282   -0.3688 h1      3  FDE        0.0611
     86 H11        -1.3429    4.3742   -0.4778 hc      3  FDE        0.0257
     87 H12        -0.4239    4.0172    1.0022 hc      3  FDE        0.0257
     88 H13        -1.0699    2.6892    0.0202 hc      3  FDE        0.0257
     89 H14         0.6851    5.5822   -1.1578 ho      3  FDE        0.2105
     90 H15        -0.7199   -1.8698   -3.4058 ho      3  FDE        0.2106
     91 H16        -4.3929   -0.4248   -5.3818 h4      3  FDE        0.0902
     92 H17        -5.1639    0.5332   -2.9458 ha      3  FDE        0.0645
     93 H18        -2.9939    1.8812   -2.0078 ha      3  FDE        0.0648
@<TRIPOS>BOND
     1     1     2    1
     2     2     3    1
     3     2     4    1
     4     2     5    1
     5     3     6    1
     6     3     7    2
     7     6     8    1
     8     8     9    2
     9     7     9    1
    10     8    10    1
    11    10    11    1
    12    10    12    1
    13    10    13    1
    14    11    14    2
    15    14    15    1
    16    11    16    1
    17    16    17    1
    18    15    17    2
    19    17    18    1
    20    18    19    1
    21    18    20    1
    22    18    21    1
    23    19    22    1
    24    19    23    1
    25     7    24    1
    26     9    25    1
    27    14    26    1
    28    15    27    1
    29    28    29    1
    30    29    30    2
    31    28    31    1
    32    31    32    2
    33    30    32    1
    34    31    33    1
    35    33    34    1
    36    33    35    1
    37    33    36    1
    38    34    37    1
    39    34    38    1
    40    38    39    1
    41    38    40    1
    42    38    41    1
    43    39    42    1
    44    42    43    1
    45    42    44    1
    46    42    45    1
    47    39    46    1
    48    39    47    1
    49    37    48    1
    50    37    49    1
    51    37    50    1
    52    48    51    1
    53    48    52    1
    54    48    53    1
    55    52    54    1
    56    52    55    1
    57    51    56    1
    58    46    57    1
    59    29    58    1
    60    30    59    1
    61    32    60    1
    62     1    52    1
    63    61    62    1
    64    62    63    2
    65    61    64    1
    66    64    65    2
    67    63    65    1
    68    64    66    1
    69    66    67    1
    70    66    68    1
    71    66    69    1
    72    67    70    1
    73    67    71    1
    74    71    72    1
    75    71    73    1
    76    71    74    1
    77    72    75    1
    78    75    76    1
    79    75    77    1
    80    72    78    1
    81    72    79    1
    82    70    80    1
    83    70    81    1
    84    70    82    1
    85    80    83    1
    86    80    84    1
    87    80    85    1
    88    84    86    1
    89    84    87    1
    90    84    88    1
    91    83    89    1
    92    78    90    1
    93    62    91    1
    94    63    92    1
    95    65    93    1
    96     1    75    1
@<TRIPOS>SUBSTRUCTURE
     1 DFA          1 RESIDUE
     2 FDE          1 RESIDUE
     3 FDE          1 RESIDUE
