@<TRIPOS>MOLECULE
DFAFDE2-3
    93    96  3  0  0
SMALL
gas

@<TRIPOS>ATOM
      1 N1         -0.4218    1.1989    1.2103 n3      1  DFA       -0.2918
      2 C           0.3082    2.4789    1.3203 c3      1  DFA        0.0457
      3 C1          1.7782    2.3889    0.9603 cc      1  DFA        0.0730
      4 H           0.2382    2.8489    2.3503 h1      1  DFA        0.0503
      5 H1         -0.1418    3.2389    0.6703 h1      1  DFA        0.0503
      6 O           2.6282    3.3789    1.3703 os      1  DFA       -0.3174
      7 C2          2.3382    1.4489    0.1203 cd      1  DFA       -0.0319
      8 C3          3.7882    3.0089    0.7303 cc      1  DFA        0.0654
      9 C4          3.6782    1.8689   -0.0297 cd      1  DFA       -0.0327
     10 C5          4.9882    3.9189    0.7603 c3      1  DFA        0.0418
     11 C6          6.3082    3.2289    0.9403 cc      1  DFA        0.0654
     12 H2          4.8582    4.6589    1.5603 hc      1  DFA        0.0409
     13 H3          5.0082    4.4989   -0.1697 hc      1  DFA        0.0409
     14 C7          6.5382    2.1789    1.8003 cd      1  DFA       -0.0327
     15 C8          7.9382    1.9589    1.7303 cd      1  DFA       -0.0319
     16 O1          7.4382    3.7189    0.3203 os      1  DFA       -0.3174
     17 C9          8.3982    2.8989    0.8403 cc      1  DFA        0.0725
     18 C10         9.8482    3.1489    0.5003 c3      1  DFA        0.0403
     19 N2         10.6882    1.9389    0.6303 n3      1  DFA       -0.3248
     20 H4         10.2382    3.9289    1.1603 h1      1  DFA        0.0498
     21 H5          9.9082    3.5189   -0.5297 h1      1  DFA        0.0498
     22 H8         10.6882    1.6289    1.6003 hn      1  DFA        0.1188
     23 H9         11.6482    2.1689    0.4003 hn      1  DFA        0.1188
     24 H10         1.8482    0.6089   -0.3597 ha      1  DFA        0.0648
     25 H11         4.4382    1.4189   -0.6597 ha      1  DFA        0.0648
     26 H12         5.8282    1.6589    2.4203 ha      1  DFA        0.0648
     27 H13         8.5182    1.2389    2.2903 ha      1  DFA        0.0648
     28 O          -7.6018    0.0689    4.1003 os      2  FDE       -0.3212
     29 C          -7.3418   -0.4511    5.3403 cc      2  FDE        0.0455
     30 C5         -6.0118   -0.4811    5.6703 cd      2  FDE       -0.0364
     31 C6         -6.3418    0.3589    3.6503 cc      2  FDE        0.0725
     32 C7         -5.3418    0.0689    4.5403 cd      2  FDE       -0.0322
     33 C8         -6.1418    1.0389    2.3203 c3      2  FDE        0.0457
     34 N          -4.8818    0.6389    1.6403 n3      2  FDE       -0.2919
     35 H          -6.1318    2.1189    2.5303 h1      2  FDE        0.0503
     36 H1         -7.0018    0.8489    1.6703 h1      2  FDE        0.0503
     37 C9         -4.2718    1.7989    0.9403 c3      2  FDE        0.0261
     38 C10        -4.9818   -0.5711    0.7803 c3      2  FDE        0.0245
     39 C3         -5.5718   -1.8411    1.4603 c3      2  FDE        0.0639
     40 H2         -3.9818   -0.8311    0.4203 h1      2  FDE        0.0458
     41 H3         -5.5918   -0.3511   -0.1097 h1      2  FDE        0.0458
     42 C1         -5.1018   -3.1211    0.7503 c3      2  FDE       -0.0377
     43 H4         -5.4318   -3.1311   -0.2997 hc      2  FDE        0.0257
     44 H5         -5.5018   -4.0111    1.2503 hc      2  FDE        0.0257
     45 H6         -4.0018   -3.2011    0.7603 hc      2  FDE        0.0257
     46 O1         -6.9918   -1.8111    1.4303 oh      2  FDE       -0.3921
     47 H7         -5.2118   -1.8811    2.5003 h1      2  FDE        0.0611
     48 C4         -2.8218    1.5989    0.4403 c3      2  FDE        0.0794
     49 H8         -4.2618    2.6589    1.6203 h1      2  FDE        0.0458
     50 H9         -4.9018    2.0789    0.0803 h1      2  FDE        0.0458
     51 O2         -2.4218    2.7889   -0.2297 oh      2  FDE       -0.3905
     52 C2         -1.8418    1.2489    1.6003 c3      2  FDE        0.0261
     53 H10        -2.7918    0.7789   -0.2897 h1      2  FDE        0.0628
     54 H11        -1.9818    1.9489    2.4303 h1      2  FDE        0.0458
     55 H12        -2.1318    0.2589    1.9703 h1      2  FDE        0.0458
     56 H14        -2.4218    3.5189    0.4203 ho      2  FDE        0.2106
     57 H15        -7.3218   -2.4511    2.0903 ho      2  FDE        0.2105
     58 H16        -8.2118   -0.7711    5.9203 h4      2  FDE        0.0902
     59 H17        -5.5618   -0.8311    6.5903 ha      2  FDE        0.0645
     60 H18        -4.2818    0.2389    4.4303 ha      2  FDE        0.0648
     61 O          -0.5438   -3.2961   -5.7547 os      3  FDE       -0.3212
     62 C          -1.8388   -3.7561   -5.6817 cc      3  FDE        0.0455
     63 C5         -2.5468   -3.2551   -4.6127 cd      3  FDE       -0.0364
     64 C6         -0.4878   -2.4661   -4.6607 cc      3  FDE        0.0725
     65 C7         -1.6568   -2.3891   -3.9447 cd      3  FDE       -0.0322
     66 C8          0.7582   -1.6701   -4.3637 c3      3  FDE        0.0457
     67 N           0.9442   -1.3791   -2.9187 n3      3  FDE       -0.2919
     68 H           0.6722   -0.7321   -4.9357 h1      3  FDE        0.0503
     69 H1          1.6372   -2.1971   -4.7657 h1      3  FDE        0.0503
     70 C9          1.4112    0.0029   -2.6757 c3      3  FDE        0.0261
     71 C10         1.7122   -2.4071   -2.1627 c3      3  FDE        0.0245
     72 C3          1.1532   -3.8541   -2.2437 c3      3  FDE        0.0639
     73 H2          1.7072   -2.1371   -1.0987 h1      3  FDE        0.0458
     74 H3          2.7572   -2.4111   -2.4937 h1      3  FDE        0.0458
     75 C1          1.6002   -4.6941   -1.0197 c3      3  FDE       -0.0377
     76 H4          2.6962   -4.7541   -0.9617 hc      3  FDE        0.0257
     77 H5          1.2002   -5.7101   -1.0937 hc      3  FDE        0.0257
     78 H6          1.2192   -4.2441   -0.0957 hc      3  FDE        0.0257
     79 O1          1.6402   -4.5081   -3.4227 oh      3  FDE       -0.3921
     80 H7          0.0632   -3.8171   -2.2487 h1      3  FDE        0.0611
     81 C4          1.2372    0.5019   -1.2247 c3      3  FDE        0.0794
     82 H8          0.8382    0.6929   -3.3257 h1      3  FDE        0.0458
     83 H9          2.4692    0.0919   -2.9617 h1      3  FDE        0.0458
     84 O2          1.6742    1.8519   -1.1307 oh      3  FDE       -0.3905
     85 C2         -0.2348    0.4099   -0.7397 c3      3  FDE        0.0261
     86 H10         1.8562   -0.1061   -0.5507 h1      3  FDE        0.0628
     87 H11        -0.9038    0.9709   -1.4067 h1      3  FDE        0.0458
     88 H12        -0.5718   -0.6341   -0.7177 h1      3  FDE        0.0458
     89 H14         1.0812    2.3889   -1.6997 ho      3  FDE        0.2106
     90 H15         1.0912   -5.2961   -3.5717 ho      3  FDE        0.2105
     91 H16        -2.1388   -4.4461   -6.4577 h4      3  FDE        0.0902
     92 H17        -3.5718   -3.4581   -4.3557 ha      3  FDE        0.0645
     93 H18        -1.8528   -1.7941   -3.0587 ha      3  FDE        0.0648
@<TRIPOS>BOND
     1     1     2    1
     2     2     3    1
     3     2     4    1
     4     2     5    1
     5     3     6    1
     6     3     7    2
     7     6     8    1
     8     8     9    2
     9     7     9    1
    10     8    10    1
    11    10    11    1
    12    10    12    1
    13    10    13    1
    14    11    14    2
    15    14    15    1
    16    11    16    1
    17    16    17    1
    18    15    17    2
    19    17    18    1
    20    18    19    1
    21    18    20    1
    22    18    21    1
    23    19    22    1
    24    19    23    1
    25     7    24    1
    26     9    25    1
    27    14    26    1
    28    15    27    1
    29    28    29    1
    30    29    30    2
    31    28    31    1
    32    31    32    2
    33    30    32    1
    34    31    33    1
    35    33    34    1
    36    33    35    1
    37    33    36    1
    38    34    37    1
    39    34    38    1
    40    38    39    1
    41    38    40    1
    42    38    41    1
    43    39    42    1
    44    42    43    1
    45    42    44    1
    46    42    45    1
    47    39    46    1
    48    39    47    1
    49    37    48    1
    50    37    49    1
    51    37    50    1
    52    48    51    1
    53    48    52    1
    54    48    53    1
    55    52    54    1
    56    52    55    1
    57    51    56    1
    58    46    57    1
    59    29    58    1
    60    30    59    1
    61    32    60    1
    62     1    52    1
    63    61    62    1
    64    62    63    2
    65    61    64    1
    66    64    65    2
    67    63    65    1
    68    64    66    1
    69    66    67    1
    70    66    68    1
    71    66    69    1
    72    67    70    1
    73    67    71    1
    74    71    72    1
    75    71    73    1
    76    71    74    1
    77    72    75    1
    78    75    76    1
    79    75    77    1
    80    75    78    1
    81    72    79    1
    82    72    80    1
    83    70    81    1
    84    70    82    1
    85    70    83    1
    86    81    84    1
    87    81    85    1
    88    81    86    1
    89    85    87    1
    90    85    88    1
    91    84    89    1
    92    79    90    1
    93    62    91    1
    94    63    92    1
    95    65    93    1
    96     1    85    1
@<TRIPOS>SUBSTRUCTURE
     1 DFA          1 RESIDUE
     2 FDE          1 RESIDUE
     3 FDE          1 RESIDUE
