@<TRIPOS>MOLECULE
DFAFDE2-5
    93    96  3  0  0
SMALL
gas

@<TRIPOS>ATOM
      1 N1         -8.9948   -1.6849   -0.9308 n3      1  DFA       -0.3248
      2 C          -8.3948   -0.3649   -0.7208 c3      1  DFA        0.0403
      3 C1         -6.9548   -0.2849   -1.1708 cc      1  DFA        0.0725
      4 H          -8.4448   -0.1049    0.3392 h1      1  DFA        0.0498
      5 H1         -8.9748    0.3951   -1.2708 h1      1  DFA        0.0498
      6 O          -6.1548    0.7251   -0.7108 os      1  DFA       -0.3174
      7 C2         -6.3548   -1.1149   -2.0808 cd      1  DFA       -0.0319
      8 C3         -4.9948    0.4751   -1.3908 cc      1  DFA        0.0654
      9 C4         -5.0448   -0.6049   -2.2308 cd      1  DFA       -0.0327
     10 C5         -3.8148    1.4051   -1.2608 c3      1  DFA        0.0418
     11 C6         -2.4848    0.7051   -1.1808 cc      1  DFA        0.0654
     12 H2         -3.9448    2.0351   -0.3608 hc      1  DFA        0.0409
     13 H3         -3.8148    2.1051   -2.1108 hc      1  DFA        0.0409
     14 C7         -2.2148   -0.3549   -0.3508 cd      1  DFA       -0.0327
     15 C8         -0.8348   -0.6349   -0.5808 cd      1  DFA       -0.0319
     16 O1         -1.4248    1.1551   -1.9108 os      1  DFA       -0.3174
     17 C9         -0.4348    0.2951   -1.5108 cc      1  DFA        0.0730
     18 C10         0.9652    0.4651   -2.0408 c3      1  DFA        0.0457
     19 N2          1.9452   -0.4049   -1.3608 n3      1  DFA       -0.2918
     20 H4          1.2352    1.5151   -1.9108 h1      1  DFA        0.0503
     21 H5          0.9652    0.2451   -3.1208 h1      1  DFA        0.0503
     22 H6         -9.9648   -1.6649   -0.6308 hn      1  DFA        0.1188
     23 H7         -9.0048   -1.9049   -1.9308 hn      1  DFA        0.1188
     24 H10        -6.7848   -1.9649   -2.5908 ha      1  DFA        0.0648
     25 H11        -4.2648   -0.9849   -2.8808 ha      1  DFA        0.0648
     26 H12        -2.8848   -0.8549    0.3292 ha      1  DFA        0.0648
     27 H13        -0.2448   -1.4049   -0.1008 ha      1  DFA        0.0648
     28 O           5.2652    4.5551   -2.4808 os      2  FDE       -0.3212
     29 C           4.5852    4.9951   -3.6008 cc      2  FDE        0.0455
     30 C5          3.2352    5.0851   -3.4208 cd      2  FDE       -0.0364
     31 C6          4.2352    4.3751   -1.6008 cc      2  FDE        0.0725
     32 C7          2.9952    4.6851   -2.0808 cd      2  FDE       -0.0322
     33 C8          4.5152    3.9351   -0.1808 c3      2  FDE        0.0457
     34 N           3.5052    2.9651    0.3292 n3      2  FDE       -0.2919
     35 H           4.5152    4.8351    0.4392 h1      2  FDE        0.0503
     36 H1          5.5252    3.5051   -0.1208 h1      2  FDE        0.0503
     37 C9          3.1252    3.2351    1.7392 c3      2  FDE        0.0245
     38 C10         3.8252    1.5451    0.0492 c3      2  FDE        0.0261
     39 C3          3.9152    1.1851   -1.4608 c3      2  FDE        0.0794
     40 H2          3.0552    0.9151    0.4992 h1      2  FDE        0.0458
     41 H3          4.7652    1.2651    0.5392 h1      2  FDE        0.0458
     42 C1          3.3552   -0.2149   -1.7808 c3      2  FDE        0.0261
     43 H4          3.9752   -0.9649   -1.2708 h1      2  FDE        0.0458
     44 H5          3.4452   -0.4049   -2.8608 h1      2  FDE        0.0458
     45 O1          5.2852    1.2351   -1.8708 oh      2  FDE       -0.3905
     46 H7          3.3452    1.9151   -2.0308 h1      2  FDE        0.0628
     47 C4          1.8052    2.5551    2.1792 c3      2  FDE        0.0639
     48 H8          3.0052    4.3151    1.8792 h1      2  FDE        0.0458
     49 H9          3.9352    2.9051    2.3992 h1      2  FDE        0.0458
     50 O2          1.5352    2.9051    3.5392 oh      2  FDE       -0.3921
     51 C2          0.6052    2.9851    1.2992 c3      2  FDE       -0.0377
     52 H10         1.9052    1.4651    2.1192 h1      2  FDE        0.0611
     53 H11         0.4652    4.0651    1.3192 hc      2  FDE        0.0257
     54 H12        -0.3248    2.5151    1.6592 hc      2  FDE        0.0257
     55 H13         0.7452    2.6751    0.2592 hc      2  FDE        0.0257
     56 H14         1.3952    3.8651    3.5692 ho      2  FDE        0.2105
     57 H15         5.2952    1.3851   -2.8408 ho      2  FDE        0.2106
     58 H16         5.1952    5.2251   -4.4708 h4      2  FDE        0.0902
     59 H17         2.4952    5.4151   -4.1408 ha      2  FDE        0.0645
     60 H18         2.0452    4.6251   -1.5708 ha      2  FDE        0.0648
     61 O          -1.4538   -5.3609   -0.0748 os      3  FDE       -0.3212
     62 C          -2.5688   -4.9019   -0.7378 cc      3  FDE        0.0455
     63 C5         -2.5538   -3.5469   -0.9778 cd      3  FDE       -0.0364
     64 C6         -0.7328   -4.2009    0.0802 cc      3  FDE        0.0725
     65 C7         -1.3308   -3.0839   -0.4498 cd      3  FDE       -0.0322
     66 C8          0.6322   -4.2259    0.7182 c3      3  FDE        0.0457
     67 N           0.9872   -2.9579    1.4072 n3      3  FDE       -0.2919
     68 H           1.3512   -4.4359   -0.0898 h1      3  FDE        0.0503
     69 H1          0.6982   -5.0739    1.4182 h1      3  FDE        0.0503
     70 C9          2.3902   -2.5579    1.1682 c3      3  FDE        0.0261
     71 C10         0.5842   -2.8849    2.8392 c3      3  FDE        0.0245
     72 C3         -0.9238   -3.1249    3.1242 c3      3  FDE        0.0639
     73 H2          0.8102   -1.8799    3.2172 h1      3  FDE        0.0458
     74 H3          1.1752   -3.5959    3.4302 h1      3  FDE        0.0458
     75 C1         -1.3508   -2.4629    4.4582 c3      3  FDE       -0.0377
     76 H4         -0.7758   -2.8679    5.3032 hc      3  FDE        0.0257
     77 H5         -2.4148   -2.6419    4.6452 hc      3  FDE        0.0257
     78 H6         -1.1928   -1.3779    4.4082 hc      3  FDE        0.0257
     79 O1         -1.1908   -4.5289    3.2282 oh      3  FDE       -0.3921
     80 H7         -1.5138   -2.6809    2.3222 h1      3  FDE        0.0611
     81 C4          2.7112   -1.0829    1.4972 c3      3  FDE        0.0794
     82 H8          2.6262   -2.7079    0.0962 h1      3  FDE        0.0458
     83 H9          3.0652   -3.2079    1.7432 h1      3  FDE        0.0458
     84 O2          4.0692   -0.8099    1.1792 oh      3  FDE       -0.3905
     85 C2          1.7992   -0.0919    0.7232 c3      3  FDE        0.0261
     86 H10         2.5672   -0.9069    2.5722 h1      3  FDE        0.0628
     87 H12         2.0862    0.9411    0.9392 h1      3  FDE        0.0458
     88 H11         0.7492   -0.2219    1.0152 h1      3  FDE        0.0458
     89 H14         4.1702   -0.9229    0.2102 ho      3  FDE        0.2106
     90 H15        -2.1528   -4.6529    3.1572 ho      3  FDE        0.2105
     91 H16        -3.3118   -5.6469   -0.9838 h4      3  FDE        0.0902
     92 H17        -3.3038   -2.9649   -1.4858 ha      3  FDE        0.0645
     93 H18        -0.9488   -2.0699   -0.4588 ha      3  FDE        0.0648
@<TRIPOS>BOND
     1     1     2    1
     2     2     3    1
     3     2     4    1
     4     2     5    1
     5     3     6    1
     6     3     7    2
     7     6     8    1
     8     8     9    2
     9     7     9    1
    10     8    10    1
    11    10    11    1
    12    10    12    1
    13    10    13    1
    14    11    14    2
    15    14    15    1
    16    11    16    1
    17    16    17    1
    18    15    17    2
    19    17    18    1
    20    18    19    1
    21    18    20    1
    22    18    21    1
    23     1    22    1
    24     1    23    1
    25     7    24    1
    26     9    25    1
    27    14    26    1
    28    15    27    1
    29    28    29    1
    30    29    30    2
    31    28    31    1
    32    31    32    2
    33    30    32    1
    34    31    33    1
    35    33    34    1
    36    33    35    1
    37    33    36    1
    38    34    37    1
    39    34    38    1
    40    38    39    1
    41    38    40    1
    42    38    41    1
    43    39    42    1
    44    42    43    1
    45    42    44    1
    46    39    45    1
    47    39    46    1
    48    37    47    1
    49    37    48    1
    50    37    49    1
    51    47    50    1
    52    47    51    1
    53    47    52    1
    54    51    53    1
    55    51    54    1
    56    51    55    1
    57    50    56    1
    58    45    57    1
    59    29    58    1
    60    30    59    1
    61    32    60    1
    62    19    42    1
    63    61    62    1
    64    62    63    2
    65    61    64    1
    66    64    65    2
    67    63    65    1
    68    64    66    1
    69    66    67    1
    70    66    68    1
    71    66    69    1
    72    67    70    1
    73    67    71    1
    74    71    72    1
    75    71    73    1
    76    71    74    1
    77    72    75    1
    78    75    76    1
    79    75    77    1
    80    75    78    1
    81    72    79    1
    82    72    80    1
    83    70    81    1
    84    70    82    1
    85    70    83    1
    86    81    84    1
    87    81    85    1
    88    81    86    1
    89    85    87    1
    90    85    88    1
    91    84    89    1
    92    79    90    1
    93    62    91    1
    94    63    92    1
    95    65    93    1
    96    19    85    1
@<TRIPOS>SUBSTRUCTURE
     1 DFA          1 RESIDUE
     2 FDE          1 RESIDUE
     3 FDE          1 RESIDUE
