@<TRIPOS>MOLECULE
DFAFDE2
    93    96  3  0  0
SMALL
gas

@<TRIPOS>ATOM
      1 N1         -0.0428   -0.4092    0.7068 n3      1  DFA       -0.2918
      2 C           0.6572    0.8808    0.8068 c3      1  DFA        0.0457
      3 C1          2.1072    0.8208    0.3968 cc      1  DFA        0.0730
      4 H           0.6072    1.2508    1.8368 h1      1  DFA        0.0503
      5 H1          0.1572    1.6208    0.1668 h1      1  DFA        0.0503
      6 O           2.9572    1.8208    0.7868 os      1  DFA       -0.3174
      7 C2          2.6572   -0.0992   -0.4632 cd      1  DFA       -0.0319
      8 C3          4.0972    1.4808    0.1168 cc      1  DFA        0.0654
      9 C4          3.9972    0.3408   -0.6532 cd      1  DFA       -0.0327
     10 C5          5.2872    2.4008    0.1268 c3      1  DFA        0.0418
     11 C6          6.6172    1.7208    0.3268 cc      1  DFA        0.0654
     12 H2          5.1572    3.1408    0.9268 hc      1  DFA        0.0409
     13 H3          5.3072    2.9708   -0.8032 hc      1  DFA        0.0409
     14 C7          6.8572    0.6808    1.1968 cd      1  DFA       -0.0327
     15 C8          8.2572    0.4608    1.1268 cd      1  DFA       -0.0319
     16 O1          7.7372    2.2008   -0.3032 os      1  DFA       -0.3174
     17 C9          8.7072    1.3908    0.2268 cc      1  DFA        0.0725
     18 C10        10.1572    1.6308   -0.1232 c3      1  DFA        0.0403
     19 N2         10.9872    0.4208   -0.0032 n3      1  DFA       -0.3248
     20 H4         10.5572    2.4108    0.5368 h1      1  DFA        0.0498
     21 H5         10.2072    2.0108   -1.1532 h1      1  DFA        0.0498
     22 H8         10.9872    0.1108    0.9568 hn      1  DFA        0.1188
     23 H9         11.9472    0.6508   -0.2432 hn      1  DFA        0.1188
     24 H10         2.1772   -0.9392   -0.9432 ha      1  DFA        0.0648
     25 H11         4.7472   -0.0892   -1.3032 ha      1  DFA        0.0648
     26 H12         6.1372    0.1708    1.8268 ha      1  DFA        0.0648
     27 H13         8.8272   -0.2592    1.6968 ha      1  DFA        0.0648
     28 O          -2.4428   -5.3892    0.1768 os      2  FDE       -0.3212
     29 C          -1.4228   -6.0592    0.8068 cc      2  FDE        0.0455
     30 C5         -1.3728   -5.8592    2.1568 cd      2  FDE       -0.0364
     31 C6         -3.0328   -4.7492    1.2368 cc      2  FDE        0.0725
     32 C7         -2.4528   -4.9992    2.4568 cd      2  FDE       -0.0322
     33 C8         -4.2728   -3.9192    1.0368 c3      2  FDE        0.0457
     34 N          -4.3428   -2.7492    1.9568 n3      2  FDE       -0.2919
     35 H          -5.1328   -4.5892    1.2068 h1      2  FDE        0.0503
     36 H1         -4.3428   -3.5892   -0.0032 h1      2  FDE        0.0503
     37 C9         -5.7228   -2.5292    2.4668 c3      2  FDE        0.0245
     38 C10        -3.6828   -1.5092    1.4768 c3      2  FDE        0.0261
     39 C3         -2.2028   -1.6592    1.0068 c3      2  FDE        0.0794
     40 H2         -3.6828   -0.7792    2.2868 h1      2  FDE        0.0458
     41 H3         -4.2628   -1.0792    0.6568 h1      2  FDE        0.0458
     42 C1         -1.4628   -0.3092    1.1068 c3      2  FDE        0.0261
     43 H4         -1.9728    0.4208    0.4768 h1      2  FDE        0.0458
     44 H5         -1.5228    0.0408    2.1468 h1      2  FDE        0.0458
     45 O1         -2.1728   -2.0992   -0.3532 oh      2  FDE       -0.3905
     46 H7         -1.6928   -2.3792    1.6568 h1      2  FDE        0.0628
     47 C4         -5.8028   -1.6092    3.7168 c3      2  FDE        0.0639
     48 H8         -6.1628   -3.4992    2.7468 h1      2  FDE        0.0458
     49 H9         -6.3428   -2.1092    1.6668 h1      2  FDE        0.0458
     50 O2         -7.1628   -1.4992    4.1168 oh      2  FDE       -0.3921
     51 C2         -4.9628   -2.1392    4.8968 c3      2  FDE       -0.0377
     52 H10        -5.4428   -0.6092    3.4468 h1      2  FDE        0.0611
     53 H11        -5.2628   -3.1592    5.1668 hc      2  FDE        0.0257
     54 H12        -5.0928   -1.5092    5.7768 hc      2  FDE        0.0257
     55 H13        -3.8928   -2.1492    4.6468 hc      2  FDE        0.0257
     56 H14        -7.4628   -2.3892    4.3968 ho      2  FDE        0.2105
     57 H15        -1.2928   -2.5092   -0.5032 ho      2  FDE        0.2106
     58 H16        -0.7828   -6.6592    0.1668 h4      2  FDE        0.0902
     59 H17        -0.6628   -6.2792    2.8668 ha      2  FDE        0.0645
     60 H18        -2.7528   -4.6192    3.4268 ha      2  FDE        0.0648
     61 O          -3.0588    1.1538   -5.0562 os      3  FDE       -0.3212
     62 C          -4.3408    0.8498   -4.6602 cc      3  FDE        0.0455
     63 C5         -4.6478    1.2868   -3.3912 cd      3  FDE       -0.0364
     64 C6         -2.5818    1.8168   -3.9512 cc      3  FDE        0.0725
     65 C7         -3.4878    1.9408   -2.9272 cd      3  FDE       -0.0322
     66 C8         -1.1948    2.4078   -3.9512 c3      3  FDE        0.0457
     67 N          -0.5818    2.4778   -2.5992 n3      3  FDE       -0.2919
     68 H          -1.2838    3.4168   -4.3832 h1      3  FDE        0.0503
     69 H1         -0.5488    1.8348   -4.6352 h1      3  FDE        0.0503
     70 C9          0.1412    3.7478   -2.3712 c3      3  FDE        0.0245
     71 C10         0.1922    1.2718   -2.1942 c3      3  FDE        0.0261
     72 C3         -0.5848   -0.0722   -2.2472 c3      3  FDE        0.0794
     73 H2          0.5172    1.3958   -1.1532 h1      3  FDE        0.0458
     74 H3          1.0962    1.1848   -2.8102 h1      3  FDE        0.0458
     75 C1          0.0402   -1.1152   -1.2872 c3      3  FDE        0.0261
     76 H4          1.0882   -1.3172   -1.5502 h1      3  FDE        0.0458
     77 H5         -0.5168   -2.0562   -1.3372 h1      3  FDE        0.0458
     78 O1         -0.5418   -0.6172   -3.5712 oh      3  FDE       -0.3905
     79 H7         -1.6168    0.0988   -1.9362 h1      3  FDE        0.0628
     80 C4          0.4452    4.0668   -0.8912 c3      3  FDE        0.0639
     81 H8         -0.4718    4.5828   -2.7622 h1      3  FDE        0.0458
     82 H9          1.0842    3.7438   -2.9382 h1      3  FDE        0.0458
     83 O2          1.0952    5.3278   -0.8002 oh      3  FDE       -0.3921
     84 C2         -0.8368    4.0918   -0.0152 c3      3  FDE       -0.0377
     85 H10         1.1212    3.3018   -0.4822 h1      3  FDE        0.0611
     86 H11        -1.5648    4.8138   -0.4082 hc      3  FDE        0.0257
     87 H12        -0.5928    4.3698    1.0138 hc      3  FDE        0.0257
     88 H13        -1.3128    3.1028    0.0028 hc      3  FDE        0.0257
     89 H14         0.4622    6.0048   -1.1232 ho      3  FDE        0.2105
     90 H15        -1.2258   -1.3052   -3.6312 ho      3  FDE        0.2106
     91 H16        -4.9428    0.3118   -5.3782 h4      3  FDE        0.0902
     92 H17        -5.5838    1.1778   -2.8712 ha      3  FDE        0.0645
     93 H18        -3.3428    2.4318   -1.9712 ha      3  FDE        0.0648
@<TRIPOS>BOND
     1     1     2    1
     2     2     3    1
     3     2     4    1
     4     2     5    1
     5     3     6    1
     6     3     7    2
     7     6     8    1
     8     8     9    2
     9     7     9    1
    10     8    10    1
    11    10    11    1
    12    10    12    1
    13    10    13    1
    14    11    14    2
    15    14    15    1
    16    11    16    1
    17    16    17    1
    18    15    17    2
    19    17    18    1
    20    18    19    1
    21    18    20    1
    22    18    21    1
    23    19    22    1
    24    19    23    1
    25     7    24    1
    26     9    25    1
    27    14    26    1
    28    15    27    1
    29    28    29    1
    30    29    30    2
    31    28    31    1
    32    31    32    2
    33    30    32    1
    34    31    33    1
    35    33    34    1
    36    33    35    1
    37    33    36    1
    38    34    37    1
    39    34    38    1
    40    38    39    1
    41    38    40    1
    42    38    41    1
    43    39    42    1
    44    42    43    1
    45    42    44    1
    46    39    45    1
    47    39    46    1
    48    37    47    1
    49    37    48    1
    50    37    49    1
    51    47    50    1
    52    47    51    1
    53    47    52    1
    54    51    53    1
    55    51    54    1
    56    51    55    1
    57    50    56    1
    58    45    57    1
    59    29    58    1
    60    30    59    1
    61    32    60    1
    62     1    42    1
    63    61    62    1
    64    62    63    2
    65    61    64    1
    66    64    65    2
    67    63    65    1
    68    64    66    1
    69    66    67    1
    70    66    68    1
    71    66    69    1
    72    67    70    1
    73    67    71    1
    74    71    72    1
    75    71    73    1
    76    71    74    1
    77    72    75    1
    78    75    76    1
    79    75    77    1
    80    72    78    1
    81    72    79    1
    82    70    80    1
    83    70    81    1
    84    70    82    1
    85    80    83    1
    86    80    84    1
    87    80    85    1
    88    84    86    1
    89    84    87    1
    90    84    88    1
    91    83    89    1
    92    78    90    1
    93    62    91    1
    94    63    92    1
    95    65    93    1
    96     1    75    1
@<TRIPOS>SUBSTRUCTURE
     1 DFA          1 RESIDUE
     2 FDE          1 RESIDUE
     3 FDE          1 RESIDUE
