@<TRIPOS>MOLECULE
DFAFDE2-3
    93    96  3  0  0
SMALL
gas

@<TRIPOS>ATOM
      1 N1         -9.9478   -0.1467    0.5450 n3      1  DFA       -0.3248
      2 C          -9.2778    1.1433    0.7460 c3      1  DFA        0.0403
      3 C1         -7.8278    1.1433    0.3050 cc      1  DFA        0.0725
      4 H          -9.3178    1.4133    1.8060 h1      1  DFA        0.0498
      5 H1         -9.8078    1.9233    0.1850 h1      1  DFA        0.0498
      6 O          -6.9878    2.1333    0.7360 os      1  DFA       -0.3174
      7 C2         -7.2678    0.2533   -0.5750 cd      1  DFA       -0.0319
      8 C3         -5.8378    1.8133    0.0660 cc      1  DFA        0.0654
      9 C4         -5.9278    0.7133   -0.7450 cd      1  DFA       -0.0327
     10 C5         -4.6378    2.7333    0.1450 c3      1  DFA        0.0418
     11 C6         -3.3178    2.0233    0.2560 cc      1  DFA        0.0654
     12 H2         -4.7578    3.4033    0.9960 hc      1  DFA        0.0409
     13 H3         -4.6278    3.3733   -0.7450 hc      1  DFA        0.0409
     14 C7         -3.0578    0.9633    1.0950 cd      1  DFA       -0.0327
     15 C8         -1.6578    0.7433    0.9760 cd      1  DFA       -0.0319
     16 O1         -2.2178    2.5233   -0.3950 os      1  DFA       -0.3174
     17 C9         -1.2278    1.6933    0.0750 cc      1  DFA        0.0730
     18 C10         0.2022    1.9733   -0.2940 c3      1  DFA        0.0457
     19 N2          1.1422    0.8933    0.0750 n3      1  DFA       -0.2918
     20 H4          0.5122    2.9033    0.1960 h1      1  DFA        0.0503
     21 H5          0.2522    2.1433   -1.3850 h1      1  DFA        0.0503
     22 H6        -10.9178   -0.0767    0.8460 hn      1  DFA        0.1188
     23 H7         -9.9578   -0.3667   -0.4450 hn      1  DFA        0.1188
     24 H10        -7.7278   -0.5867   -1.0750 ha      1  DFA        0.0648
     25 H11        -5.1678    0.2933   -1.3950 ha      1  DFA        0.0648
     26 H12        -3.7478    0.4433    1.7460 ha      1  DFA        0.0648
     27 H13        -1.0678    0.0133    1.5060 ha      1  DFA        0.0648
     28 O           7.9622    2.4433   -3.3540 os      2  FDE       -0.3212
     29 C           7.6122    3.3733   -4.3040 cc      2  FDE        0.0455
     30 C3          6.3022    3.7633   -4.2340 cd      2  FDE       -0.0364
     31 C4          6.7722    2.2733   -2.6840 cc      2  FDE        0.0725
     32 C5          5.7422    3.0433   -3.1550 cd      2  FDE       -0.0322
     33 C6          6.6922    1.3633   -1.4840 c3      2  FDE        0.0457
     34 N           5.3922    0.6633   -1.3550 n3      2  FDE       -0.2919
     35 H           6.8622    2.0033   -0.6150 h1      2  FDE        0.0503
     36 H1          7.5122    0.6433   -1.5140 h1      2  FDE        0.0503
     37 C7          4.9922    0.5133    0.0660 c3      2  FDE        0.0261
     38 C8          5.2722   -0.6167   -2.1240 c3      2  FDE        0.0245
     39 C9          5.6422   -0.5467   -3.6240 c3      2  FDE        0.0639
     40 H2          4.2422   -0.9667   -2.0540 h1      2  FDE        0.0458
     41 H3          5.9022   -1.3867   -1.6450 h1      2  FDE        0.0458
     42 C1          4.9622   -1.6867   -4.4150 c3      2  FDE       -0.0377
     43 H4          5.2722   -2.6667   -4.0350 hc      2  FDE        0.0257
     44 H5          5.2222   -1.6367   -5.4740 hc      2  FDE        0.0257
     45 H6          3.8622   -1.6167   -4.3350 hc      2  FDE        0.0257
     46 O1          7.0522   -0.6767   -3.8040 oh      2  FDE       -0.3921
     47 H7          5.2922    0.4033   -4.0450 h1      2  FDE        0.0611
     48 C10         3.5122    0.1333    0.3050 c3      2  FDE        0.0794
     49 H8          5.1722    1.4633    0.5860 h1      2  FDE        0.0458
     50 H9          5.6422   -0.2367    0.5450 h1      2  FDE        0.0458
     51 O2          3.3122   -0.0367    1.7160 oh      2  FDE       -0.3905
     52 C2          2.5422    1.2033   -0.2340 c3      2  FDE        0.0261
     53 H10         3.2922   -0.8267   -0.1950 h1      2  FDE        0.0628
     54 H11         2.8122    2.1733    0.2150 h1      2  FDE        0.0458
     55 H12         2.6722    1.3033   -1.3150 h1      2  FDE        0.0458
     56 H14         3.4722    0.8233    2.1350 ho      2  FDE        0.2106
     57 H15         7.2722   -0.3667   -4.6940 ho      2  FDE        0.2105
     58 H16         8.4022    3.6833   -4.9740 h4      2  FDE        0.0902
     59 H17         5.7922    4.4933   -4.8640 ha      2  FDE        0.0645
     60 H18         4.7222    3.0933   -2.7840 ha      2  FDE        0.0648
     61 O          -3.3398   -3.2957   -0.2910 os      3  FDE       -0.3212
     62 C          -4.2868   -2.4027   -0.7330 cc      3  FDE        0.0455
     63 C3         -3.9578   -1.0857   -0.5050 cd      3  FDE       -0.0364
     64 C4         -2.3878   -2.4507    0.2280 cc      3  FDE        0.0725
     65 C5         -2.6928   -1.1167    0.1180 cd      3  FDE       -0.0322
     66 C6         -1.0998   -2.9967    0.7880 c3      3  FDE        0.0457
     67 N          -0.5098   -2.1457    1.8540 n3      3  FDE       -0.2919
     68 H          -0.4018   -3.0847   -0.0610 h1      3  FDE        0.0503
     69 H1         -1.2628   -4.0197    1.1610 h1      3  FDE        0.0503
     70 C7          0.9582   -2.0187    1.7290 c3      3  FDE        0.0261
     71 C8         -0.9638   -2.4627    3.2360 c3      3  FDE        0.0245
     72 C9         -2.5008   -2.4327    3.4600 c3      3  FDE        0.0639
     73 H2         -0.5408   -1.7187    3.9240 h1      3  FDE        0.0458
     74 H3         -0.5798   -3.4437    3.5400 h1      3  FDE        0.0458
     75 C1         -2.8428   -2.1727    4.9490 c3      3  FDE       -0.0377
     76 H4         -2.4188   -2.9547    5.5950 hc      3  FDE        0.0257
     77 H5         -3.9288   -2.1567    5.0900 hc      3  FDE        0.0257
     78 H6         -2.4448   -1.1997    5.2620 hc      3  FDE        0.0257
     79 O1         -3.0788   -3.6917    3.0940 oh      3  FDE       -0.3921
     80 H7         -2.9328   -1.6257    2.8680 h1      3  FDE        0.0611
     81 C10         1.5802   -0.8517    2.5270 c3      3  FDE        0.0794
     82 H8          1.2132   -1.8547    0.6640 h1      3  FDE        0.0458
     83 H9          1.4382   -2.9597    2.0370 h1      3  FDE        0.0458
     84 O2          2.9802   -0.8057    2.2880 oh      3  FDE       -0.3905
     85 C2          0.9552    0.5193    2.1530 c3      3  FDE        0.0261
     86 H10         1.4202   -1.0157    3.6020 h1      3  FDE        0.0628
     87 H12         1.4532    1.3283    2.6960 h1      3  FDE        0.0458
     88 H11        -0.1118    0.5433    2.4090 h1      3  FDE        0.0458
     89 H14         3.1062   -0.6097    1.3340 ho      3  FDE        0.2106
     90 H15        -4.0388   -3.5627    3.0070 ho      3  FDE        0.2105
     91 H16        -5.1628   -2.8337   -1.1980 h4      3  FDE        0.0902
     92 H17        -4.5308   -0.2137   -0.7700 ha      3  FDE        0.0645
     93 H18        -2.0948   -0.2717    0.4410 ha      3  FDE        0.0648
@<TRIPOS>BOND
     1     1     2    1
     2     2     3    1
     3     2     4    1
     4     2     5    1
     5     3     6    1
     6     3     7    2
     7     6     8    1
     8     8     9    2
     9     7     9    1
    10     8    10    1
    11    10    11    1
    12    10    12    1
    13    10    13    1
    14    11    14    2
    15    14    15    1
    16    11    16    1
    17    16    17    1
    18    15    17    2
    19    17    18    1
    20    18    19    1
    21    18    20    1
    22    18    21    1
    23     1    22    1
    24     1    23    1
    25     7    24    1
    26     9    25    1
    27    14    26    1
    28    15    27    1
    29    28    29    1
    30    29    30    2
    31    28    31    1
    32    31    32    2
    33    30    32    1
    34    31    33    1
    35    33    34    1
    36    33    35    1
    37    33    36    1
    38    34    37    1
    39    34    38    1
    40    38    39    1
    41    38    40    1
    42    38    41    1
    43    39    42    1
    44    42    43    1
    45    42    44    1
    46    42    45    1
    47    39    46    1
    48    39    47    1
    49    37    48    1
    50    37    49    1
    51    37    50    1
    52    48    51    1
    53    48    52    1
    54    48    53    1
    55    52    54    1
    56    52    55    1
    57    51    56    1
    58    46    57    1
    59    29    58    1
    60    30    59    1
    61    32    60    1
    62    19    52    1
    63    61    62    1
    64    62    63    2
    65    61    64    1
    66    64    65    2
    67    63    65    1
    68    64    66    1
    69    66    67    1
    70    66    68    1
    71    66    69    1
    72    67    70    1
    73    67    71    1
    74    71    72    1
    75    71    73    1
    76    71    74    1
    77    72    75    1
    78    75    76    1
    79    75    77    1
    80    75    78    1
    81    72    79    1
    82    72    80    1
    83    70    81    1
    84    70    82    1
    85    70    83    1
    86    81    84    1
    87    81    85    1
    88    81    86    1
    89    85    87    1
    90    85    88    1
    91    84    89    1
    92    79    90    1
    93    62    91    1
    94    63    92    1
    95    65    93    1
    96    19    85    1
@<TRIPOS>SUBSTRUCTURE
     1 DFA          1 RESIDUE
     2 FDE          1 RESIDUE
     3 FDE          1 RESIDUE