@<TRIPOS>MOLECULE
DFAFDE-1
    61    63  2  0  0
SMALL
gas

@<TRIPOS>ATOM
      1 N1          0.1331   -0.0360   -0.4060 n3      1  DFA       -0.3081
      2 C           0.8031    1.2540   -0.1860 c3      1  DFA        0.0429
      3 C1          2.2431    1.2640   -0.6170 cc      1  DFA        0.0727
      4 H           0.7431    1.5240    0.8740 h1      1  DFA        0.0501
      5 H1          0.2731    2.0340   -0.7470 h1      1  DFA        0.0501
      6 O           3.0631    2.2840   -0.2160 os      1  DFA       -0.3174
      7 C2          2.8431    0.3440   -1.4370 cd      1  DFA       -0.0319
      8 C3          4.2331    1.9540   -0.8570 cc      1  DFA        0.0654
      9 C4          4.1731    0.8140   -1.6070 cd      1  DFA       -0.0327
     10 C5          5.4231    2.8740   -0.7760 c3      1  DFA        0.0418
     11 C6          6.7431    2.1740   -0.5870 cc      1  DFA        0.0654
     12 H2          5.2831    3.5840    0.0430 hc      1  DFA        0.0409
     13 H3          5.4631    3.4740   -1.6960 hc      1  DFA        0.0409
     14 C7          6.9431    1.0840    0.2240 cd      1  DFA       -0.0327
     15 C8          8.3431    0.8440    0.1640 cd      1  DFA       -0.0319
     16 O1          7.8831    2.6740   -1.1670 os      1  DFA       -0.3174
     17 C9          8.8331    1.8140   -0.6760 cc      1  DFA        0.0725
     18 C10        10.2831    2.0440   -1.0060 c3      1  DFA        0.0403
     19 N2         11.1031    0.8340   -0.8570 n3      1  DFA       -0.3248
     20 H4         10.6731    2.8340   -0.3460 h1      1  DFA        0.0498
     21 H5         10.3631    2.4040   -2.0370 h1      1  DFA        0.0498
     22 H6          0.1331   -0.2560   -1.3970 hn      1  DFA        0.1227
     23 H8         11.0831    0.5240    0.1140 hn      1  DFA        0.1188
     24 H9         12.0731    1.0540   -1.0670 hn      1  DFA        0.1188
     25 H10         2.3931   -0.5360   -1.8970 ha      1  DFA        0.0648
     26 H11         4.9531    0.3640   -2.2160 ha      1  DFA        0.0648
     27 H12         6.2131    0.5440    0.8140 ha      1  DFA        0.0648
     28 H13         8.9031    0.0740    0.6830 ha      1  DFA        0.0648
     29 O          -7.5009   -1.0620    2.6760 os      2  FDE       -0.3212
     30 C          -7.1599   -1.5590    3.9120 cc      2  FDE        0.0455
     31 C5         -5.8029   -1.6000    4.1400 cd      2  FDE       -0.0364
     32 C6         -6.2639   -0.7880    2.1420 cc      2  FDE        0.0725
     33 C7         -5.2099   -1.0750    2.9730 cd      2  FDE       -0.0322
     34 C8         -6.1399   -0.1510    0.7810 c3      2  FDE        0.0457
     35 N          -4.8839   -0.5090    0.0720 n3      2  FDE       -0.2919
     36 H          -6.1929    0.9380    0.9390 h1      2  FDE        0.0503
     37 H1         -7.0149   -0.4160    0.1680 h1      2  FDE        0.0503
     38 C9         -4.2759    0.6480   -0.6190 c3      2  FDE        0.0261
     39 C10        -4.9639   -1.7320   -0.7730 c3      2  FDE        0.0245
     40 C3         -5.4319   -3.0220   -0.0440 c3      2  FDE        0.0639
     41 H2         -3.9649   -1.9510   -1.1690 h1      2  FDE        0.0458
     42 H3         -5.6229   -1.5510   -1.6310 h1      2  FDE        0.0458
     43 C1         -4.9269   -4.2900   -0.7760 c3      2  FDE       -0.0377
     44 H4         -5.3029   -4.3270   -1.8080 hc      2  FDE        0.0257
     45 H5         -5.2659   -5.1900   -0.2510 hc      2  FDE        0.0257
     46 H6         -3.8299   -4.3020   -0.7970 hc      2  FDE        0.0257
     47 O1         -6.8629   -3.0790   -0.0080 oh      2  FDE       -0.3921
     48 H7         -5.0219   -3.0290    0.9670 h1      2  FDE        0.0611
     49 C4         -2.7959    0.4600   -1.0200 c3      2  FDE        0.0791
     50 H8         -4.3189    1.5280    0.0520 h1      2  FDE        0.0458
     51 H9         -4.8619    0.8940   -1.5160 h1      2  FDE        0.0458
     52 O2         -2.3139    1.6520   -1.6280 oh      2  FDE       -0.3905
     53 C2         -1.8929    0.1090    0.1930 c3      2  FDE        0.0229
     54 H10        -2.7149   -0.3560   -1.7520 h1      2  FDE        0.0628
     55 H11        -1.9709    0.8770    0.9750 h1      2  FDE        0.0456
     56 H12        -2.1879   -0.8540    0.6300 h1      2  FDE        0.0456
     57 H14        -2.3469    2.3590   -0.9490 ho      2  FDE        0.2106
     58 H15        -7.1159   -3.7450    0.6530 ho      2  FDE        0.2105
     59 H16        -7.9839   -1.8550    4.5460 h4      2  FDE        0.0902
     60 H17        -5.2999   -1.9350    5.0300 ha      2  FDE        0.0645
     61 H18        -4.1529   -0.9320    2.7760 ha      2  FDE        0.0648
@<TRIPOS>BOND
     1     1     2    1
     2     2     3    1
     3     2     4    1
     4     2     5    1
     5     3     6    1
     6     3     7    2
     7     6     8    1
     8     8     9    2
     9     7     9    1
    10     8    10    1
    11    10    11    1
    12    10    12    1
    13    10    13    1
    14    11    14    2
    15    14    15    1
    16    11    16    1
    17    16    17    1
    18    15    17    2
    19    17    18    1
    20    18    19    1
    21    18    20    1
    22    18    21    1
    23     1    22    1
    24    19    23    1
    25    19    24    1
    26     7    25    1
    27     9    26    1
    28    14    27    1
    29    15    28    1
    30    29    30    1
    31    30    31    2
    32    29    32    1
    33    32    33    2
    34    31    33    1
    35    32    34    1
    36    34    35    1
    37    34    36    1
    38    34    37    1
    39    35    38    1
    40    35    39    1
    41    39    40    1
    42    39    41    1
    43    39    42    1
    44    40    43    1
    45    43    44    1
    46    43    45    1
    47    43    46    1
    48    40    47    1
    49    40    48    1
    50    38    49    1
    51    38    50    1
    52    38    51    1
    53    49    52    1
    54    49    53    1
    55    49    54    1
    56    53    55    1
    57    53    56    1
    58    52    57    1
    59    47    58    1
    60    30    59    1
    61    31    60    1
    62    33    61    1
    63     1    53    1
@<TRIPOS>SUBSTRUCTURE
     1 DFA          1 RESIDUE
     2 FDE          1 RESIDUE
