@<TRIPOS>MOLECULE
DFAFDE-3
    61    63  2  0  0
SMALL
gas

@<TRIPOS>ATOM
      1 N1        -10.8690   -1.1369    1.5860 n3      1  DFA       -0.3248
      2 C         -10.1990    0.1531    1.8060 c3      1  DFA        0.0403
      3 C1         -8.7490    0.1631    1.3760 cc      1  DFA        0.0725
      4 H         -10.2590    0.4231    2.8660 h1      1  DFA        0.0498
      5 H1        -10.7290    0.9331    1.2460 h1      1  DFA        0.0498
      6 O          -7.9390    1.1831    1.7760 os      1  DFA       -0.3174
      7 C2         -8.1590   -0.7569    0.5460 cd      1  DFA       -0.0319
      8 C3         -6.7690    0.8531    1.1360 cc      1  DFA        0.0654
      9 C4         -6.8290   -0.2869    0.3860 cd      1  DFA       -0.0327
     10 C5         -5.5790    1.7731    1.2160 c3      1  DFA        0.0418
     11 C6         -4.2590    1.0731    1.4060 cc      1  DFA        0.0654
     12 H2         -5.7190    2.4831    2.0360 hc      1  DFA        0.0409
     13 H3         -5.5390    2.3731    0.2960 hc      1  DFA        0.0409
     14 C7         -4.0590   -0.0169    2.2260 cd      1  DFA       -0.0327
     15 C8         -2.6590   -0.2569    2.1560 cd      1  DFA       -0.0319
     16 O1         -3.1190    1.5731    0.8260 os      1  DFA       -0.3174
     17 C9         -2.1790    0.7131    1.3160 cc      1  DFA        0.0727
     18 C10        -0.7190    0.9331    0.9860 c3      1  DFA        0.0429
     19 N2          0.1010   -0.2769    1.1360 n3      1  DFA       -0.3081
     20 H4         -0.3290    1.7231    1.6460 h1      1  DFA        0.0501
     21 H5         -0.6490    1.3031   -0.0440 h1      1  DFA        0.0501
     22 H6        -11.8390   -1.0669    1.8760 hn      1  DFA        0.1188
     23 H7        -10.8690   -1.3569    0.5960 hn      1  DFA        0.1188
     24 H8          0.0810   -0.5769    2.1060 hn      1  DFA        0.1227
     25 H10        -8.5990   -1.6369    0.0960 ha      1  DFA        0.0648
     26 H11        -6.0490   -0.7269   -0.2240 ha      1  DFA        0.0648
     27 H12        -4.7890   -0.5569    2.8060 ha      1  DFA        0.0648
     28 H13        -2.0990   -1.0269    2.6860 ha      1  DFA        0.0648
     29 O           7.4090    1.5371   -2.3350 os      2  FDE       -0.3212
     30 C           6.9790    2.4761   -3.2440 cc      2  FDE        0.0455
     31 C3          5.6360    2.7631   -3.1540 cd      2  FDE       -0.0364
     32 C4          6.2440    1.2571   -1.6610 cc      2  FDE        0.0725
     33 C5          5.1510    1.9671   -2.0950 cd      2  FDE       -0.0322
     34 C6          6.2420    0.2971   -0.4980 c3      2  FDE        0.0457
     35 N           4.9440   -0.4029   -0.3120 n3      2  FDE       -0.2919
     36 H           6.4880    0.8911    0.3970 h1      2  FDE        0.0503
     37 H1          7.0570   -0.4319   -0.6200 h1      2  FDE        0.0503
     38 C7          4.5560   -0.5039    1.1110 c3      2  FDE        0.0261
     39 C8          4.8070   -1.6839   -1.0580 c3      2  FDE        0.0245
     40 C9          5.0320   -1.5939   -2.5920 c3      2  FDE        0.0639
     41 H2          3.7860   -2.0629   -0.9210 h1      2  FDE        0.0458
     42 H3          5.4910   -2.4339   -0.6420 h1      2  FDE        0.0458
     43 C1          4.3110   -2.7499   -3.3310 c3      2  FDE       -0.0377
     44 H4          4.6780   -3.7269   -2.9890 hc      2  FDE        0.0257
     45 H5          4.4810   -2.6719   -4.4100 hc      2  FDE        0.0257
     46 H6          3.2300   -2.6939   -3.1520 hc      2  FDE        0.0257
     47 O1          6.4300   -1.6889   -2.8940 oh      2  FDE       -0.3921
     48 H7          4.6240   -0.6509   -2.9590 h1      2  FDE        0.0611
     49 C10         3.0680   -0.8389    1.3570 c3      2  FDE        0.0791
     50 H8          4.7550    0.4671    1.6050 h1      2  FDE        0.0458
     51 H9          5.1810   -1.2579    1.6130 h1      2  FDE        0.0458
     52 O2          2.8110   -0.8599    2.7550 oh      2  FDE       -0.3905
     53 C2          2.1120    0.1791    0.6800 c3      2  FDE        0.0229
     54 H10         2.8450   -1.8359    0.9520 h1      2  FDE        0.0628
     55 H11         2.3240    1.2021    1.0220 h1      2  FDE        0.0456
     56 H12         2.2280    0.1541   -0.4110 h1      2  FDE        0.0456
     57 H14         2.9670    0.0491    3.0930 ho      2  FDE        0.2106
     58 H15         6.5570   -1.3849   -3.8090 ho      2  FDE        0.2105
     59 H16         7.7340    2.8681   -3.9110 h4      2  FDE        0.0902
     60 H17         5.0770    3.4661   -3.7460 ha      2  FDE        0.0645
     61 H18         4.1380    1.9241   -1.7100 ha      2  FDE        0.0648
@<TRIPOS>BOND
     1     1     2    1
     2     2     3    1
     3     2     4    1
     4     2     5    1
     5     3     6    1
     6     3     7    2
     7     6     8    1
     8     8     9    2
     9     7     9    1
    10     8    10    1
    11    10    11    1
    12    10    12    1
    13    10    13    1
    14    11    14    2
    15    14    15    1
    16    11    16    1
    17    16    17    1
    18    15    17    2
    19    17    18    1
    20    18    19    1
    21    18    20    1
    22    18    21    1
    23     1    22    1
    24     1    23    1
    25    19    24    1
    26     7    25    1
    27     9    26    1
    28    14    27    1
    29    15    28    1
    30    29    30    1
    31    30    31    2
    32    29    32    1
    33    32    33    2
    34    31    33    1
    35    32    34    1
    36    34    35    1
    37    34    36    1
    38    34    37    1
    39    35    38    1
    40    35    39    1
    41    39    40    1
    42    39    41    1
    43    39    42    1
    44    40    43    1
    45    43    44    1
    46    43    45    1
    47    43    46    1
    48    40    47    1
    49    40    48    1
    50    38    49    1
    51    38    50    1
    52    38    51    1
    53    49    52    1
    54    49    53    1
    55    49    54    1
    56    53    55    1
    57    53    56    1
    58    52    57    1
    59    47    58    1
    60    30    59    1
    61    31    60    1
    62    33    61    1
    63    19    53    1
@<TRIPOS>SUBSTRUCTURE
     1 DFA          1 RESIDUE
     2 FDE          1 RESIDUE