@<TRIPOS>MOLECULE
DFAFDE2
    93    96  3  0  0
SMALL
gas

@<TRIPOS>ATOM
      1 N1         -0.0382   -0.4168    0.7082 n3      1  DFA       -0.2918
      2 C           0.6718    0.8732    0.7982 c3      1  DFA        0.0457
      3 C1          2.1218    0.8032    0.3882 cc      1  DFA        0.0730
      4 H           0.6218    1.2432    1.8282 h1      1  DFA        0.0503
      5 H1          0.1718    1.6132    0.1582 h1      1  DFA        0.0503
      6 O           2.9718    1.8032    0.7782 os      1  DFA       -0.3174
      7 C2          2.6718   -0.1168   -0.4718 cd      1  DFA       -0.0319
      8 C3          4.1118    1.4532    0.1082 cc      1  DFA        0.0654
      9 C4          4.0018    0.3232   -0.6618 cd      1  DFA       -0.0327
     10 C5          5.3018    2.3732    0.1182 c3      1  DFA        0.0418
     11 C6          6.6318    1.6932    0.3182 cc      1  DFA        0.0654
     12 H2          5.1718    3.1232    0.9182 hc      1  DFA        0.0409
     13 H3          5.3218    2.9432   -0.8218 hc      1  DFA        0.0409
     14 C7          6.8618    0.6632    1.1882 cd      1  DFA       -0.0327
     15 C8          8.2718    0.4432    1.1182 cd      1  DFA       -0.0319
     16 O1          7.7518    2.1832   -0.3118 os      1  DFA       -0.3174
     17 C9          8.7218    1.3732    0.2182 cc      1  DFA        0.0725
     18 C10        10.1718    1.6132   -0.1318 c3      1  DFA        0.0403
     19 N2         11.0018    0.4032   -0.0118 n3      1  DFA       -0.3248
     20 H4         10.5618    2.3932    0.5282 h1      1  DFA        0.0498
     21 H5         10.2218    1.9932   -1.1618 h1      1  DFA        0.0498
     22 H8         11.0018    0.0932    0.9582 hn      1  DFA        0.1188
     23 H9         11.9618    0.6332   -0.2418 hn      1  DFA        0.1188
     24 H10         2.1818   -0.9568   -0.9418 ha      1  DFA        0.0648
     25 H11         4.7518   -0.1168   -1.3118 ha      1  DFA        0.0648
     26 H12         6.1518    0.1432    1.8182 ha      1  DFA        0.0648
     27 H13         8.8418   -0.2768    1.6882 ha      1  DFA        0.0648
     28 O          -2.4782   -5.3868    0.1982 os      2  FDE       -0.3212
     29 C          -1.4582   -6.0568    0.8182 cc      2  FDE        0.0455
     30 C5         -1.4082   -5.8568    2.1782 cd      2  FDE       -0.0364
     31 C6         -3.0682   -4.7368    1.2482 cc      2  FDE        0.0725
     32 C7         -2.4882   -4.9768    2.4682 cd      2  FDE       -0.0322
     33 C8         -4.2982   -3.8968    1.0482 c3      2  FDE        0.0457
     34 N          -4.3582   -2.7268    1.9582 n3      2  FDE       -0.2919
     35 H          -5.1582   -4.5568    1.2182 h1      2  FDE        0.0503
     36 H1         -4.3682   -3.5668   -0.0018 h1      2  FDE        0.0503
     37 C9         -5.7282   -2.4868    2.4682 c3      2  FDE        0.0245
     38 C10        -3.6782   -1.4868    1.4782 c3      2  FDE        0.0261
     39 C3         -2.2082   -1.6568    1.0082 c3      2  FDE        0.0794
     40 H2         -3.6782   -0.7568    2.2882 h1      2  FDE        0.0458
     41 H3         -4.2582   -1.0568    0.6482 h1      2  FDE        0.0458
     42 C1         -1.4582   -0.3068    1.1082 c3      2  FDE        0.0261
     43 H4         -1.9682    0.4232    0.4682 h1      2  FDE        0.0458
     44 H5         -1.5182    0.0532    2.1382 h1      2  FDE        0.0458
     45 O1         -2.1782   -2.1068   -0.3518 oh      2  FDE       -0.3905
     46 H7         -1.7082   -2.3768    1.6582 h1      2  FDE        0.0628
     47 C4         -5.8082   -1.5668    3.7082 c3      2  FDE        0.0639
     48 H8         -6.1782   -3.4468    2.7582 h1      2  FDE        0.0458
     49 H9         -6.3482   -2.0668    1.6682 h1      2  FDE        0.0458
     50 O2         -7.1682   -1.4468    4.1182 oh      2  FDE       -0.3921
     51 C2         -4.9682   -2.0968    4.8982 c3      2  FDE       -0.0377
     52 H10        -5.4382   -0.5668    3.4482 h1      2  FDE        0.0611
     53 H11        -5.2782   -3.1168    5.1682 hc      2  FDE        0.0257
     54 H12        -5.0982   -1.4568    5.7782 hc      2  FDE        0.0257
     55 H13        -3.9082   -2.1168    4.6482 hc      2  FDE        0.0257
     56 H14        -7.4682   -2.3268    4.3982 ho      2  FDE        0.2105
     57 H15        -1.2982   -2.5168   -0.5018 ho      2  FDE        0.2106
     58 H16        -0.8282   -6.6668    0.1782 h4      2  FDE        0.0902
     59 H17        -0.7082   -6.2868    2.8782 ha      2  FDE        0.0645
     60 H18        -2.7782   -4.5968    3.4382 ha      2  FDE        0.0648
     61 O          -3.0552    1.1472   -5.0548 os      3  FDE       -0.3212
     62 C          -4.3362    0.8432   -4.6578 cc      3  FDE        0.0455
     63 C5         -4.6432    1.2792   -3.3888 cd      3  FDE       -0.0364
     64 C6         -2.5782    1.8102   -3.9498 cc      3  FDE        0.0725
     65 C7         -3.4832    1.9342   -2.9248 cd      3  FDE       -0.0322
     66 C8         -1.1902    2.4002   -3.9488 c3      3  FDE        0.0457
     67 N          -0.5782    2.4712   -2.5968 n3      3  FDE       -0.2919
     68 H          -1.2802    3.4102   -4.3818 h1      3  FDE        0.0503
     69 H1         -0.5452    1.8282   -4.6328 h1      3  FDE        0.0503
     70 C9          0.1448    3.7402   -2.3698 c3      3  FDE        0.0245
     71 C10         0.1958    1.2652   -2.1918 c3      3  FDE        0.0261
     72 C3         -0.5812   -0.0788   -2.2448 c3      3  FDE        0.0794
     73 H2          0.5208    1.3892   -1.1508 h1      3  FDE        0.0458
     74 H3          1.0998    1.1772   -2.8078 h1      3  FDE        0.0458
     75 C1          0.0448   -1.1228   -1.2848 c3      3  FDE        0.0261
     76 H4          1.0918   -1.3238   -1.5478 h1      3  FDE        0.0458
     77 H5         -0.5132   -2.0638   -1.3358 h1      3  FDE        0.0458
     78 O1         -0.5372   -0.6238   -3.5698 oh      3  FDE       -0.3905
     79 H7         -1.6122    0.0922   -1.9338 h1      3  FDE        0.0628
     80 C4          0.4498    4.0592   -0.8888 c3      3  FDE        0.0639
     81 H8         -0.4682    4.5752   -2.7608 h1      3  FDE        0.0458
     82 H9          1.0878    3.7362   -2.9368 h1      3  FDE        0.0458
     83 O2          1.0988    5.3212   -0.7978 oh      3  FDE       -0.3921
     84 C2         -0.8322    4.0842   -0.0138 c3      3  FDE       -0.0377
     85 H10         1.1248    3.2952   -0.4798 h1      3  FDE        0.0611
     86 H11        -1.5612    4.8072   -0.4068 hc      3  FDE        0.0257
     87 H12        -0.5882    4.3632    1.0152 hc      3  FDE        0.0257
     88 H13        -1.3092    3.0962    0.0052 hc      3  FDE        0.0257
     89 H14         0.4658    5.9972   -1.1208 ho      3  FDE        0.2105
     90 H15        -1.2222   -1.3118   -3.6288 ho      3  FDE        0.2106
     91 H16        -4.9392    0.3042   -5.3758 h4      3  FDE        0.0902
     92 H17        -5.5802    1.1712   -2.8688 ha      3  FDE        0.0645
     93 H18        -3.3382    2.4252   -1.9688 ha      3  FDE        0.0648
@<TRIPOS>BOND
     1     1     2    1
     2     2     3    1
     3     2     4    1
     4     2     5    1
     5     3     6    1
     6     3     7    2
     7     6     8    1
     8     8     9    2
     9     7     9    1
    10     8    10    1
    11    10    11    1
    12    10    12    1
    13    10    13    1
    14    11    14    2
    15    14    15    1
    16    11    16    1
    17    16    17    1
    18    15    17    2
    19    17    18    1
    20    18    19    1
    21    18    20    1
    22    18    21    1
    23    19    22    1
    24    19    23    1
    25     7    24    1
    26     9    25    1
    27    14    26    1
    28    15    27    1
    29    28    29    1
    30    29    30    2
    31    28    31    1
    32    31    32    2
    33    30    32    1
    34    31    33    1
    35    33    34    1
    36    33    35    1
    37    33    36    1
    38    34    37    1
    39    34    38    1
    40    38    39    1
    41    38    40    1
    42    38    41    1
    43    39    42    1
    44    42    43    1
    45    42    44    1
    46    39    45    1
    47    39    46    1
    48    37    47    1
    49    37    48    1
    50    37    49    1
    51    47    50    1
    52    47    51    1
    53    47    52    1
    54    51    53    1
    55    51    54    1
    56    51    55    1
    57    50    56    1
    58    45    57    1
    59    29    58    1
    60    30    59    1
    61    32    60    1
    62     1    42    1
    63    61    62    1
    64    62    63    2
    65    61    64    1
    66    64    65    2
    67    63    65    1
    68    64    66    1
    69    66    67    1
    70    66    68    1
    71    66    69    1
    72    67    70    1
    73    67    71    1
    74    71    72    1
    75    71    73    1
    76    71    74    1
    77    72    75    1
    78    75    76    1
    79    75    77    1
    80    72    78    1
    81    72    79    1
    82    70    80    1
    83    70    81    1
    84    70    82    1
    85    80    83    1
    86    80    84    1
    87    80    85    1
    88    84    86    1
    89    84    87    1
    90    84    88    1
    91    83    89    1
    92    78    90    1
    93    62    91    1
    94    63    92    1
    95    65    93    1
    96     1    75    1
@<TRIPOS>SUBSTRUCTURE
     1 DFA          1 RESIDUE
     2 FDE          1 RESIDUE
     3 FDE          1 RESIDUE