@<TRIPOS>MOLECULE
DFAFDE2-8
    93    96  3  0  0
SMALL
gas

@<TRIPOS>ATOM
      1 N1         -4.2142   -0.4071    1.0542 n3      1  DFA       -0.3081
      2 C          -3.3542    0.5329    1.8142 c3      1  DFA        0.0429
      3 C1         -1.8842    0.4729    1.4742 cc      1  DFA        0.0727
      4 H          -3.4742    0.3229    2.8842 h1      1  DFA        0.0501
      5 H1         -3.7042    1.5529    1.6442 h1      1  DFA        0.0501
      6 O          -1.1642    1.6429    1.4342 os      1  DFA       -0.3174
      7 C2         -1.1842   -0.6471    1.1142 cd      1  DFA       -0.0319
      8 C3          0.0458    1.1829    0.9842 cc      1  DFA        0.0654
      9 C4          0.1058   -0.1671    0.7742 cd      1  DFA       -0.0327
     10 C5          1.1458    2.1629    0.6742 c3      1  DFA        0.0418
     11 C6          2.5258    1.6829    1.0542 cc      1  DFA        0.0654
     12 H2          0.9458    3.1129    1.1942 hc      1  DFA        0.0409
     13 H3          1.1258    2.4029   -0.3958 hc      1  DFA        0.0409
     14 C7          2.8358    1.0329    2.2242 cd      1  DFA       -0.0327
     15 C8          4.2358    0.8529    2.1742 cd      1  DFA       -0.0319
     16 O1          3.5958    1.9529    0.2442 os      1  DFA       -0.3174
     17 C9          4.6158    1.4129    0.9842 cc      1  DFA        0.0727
     18 C10         6.0458    1.5329    0.5142 c3      1  DFA        0.0429
     19 N2          6.7458    0.2429    0.5442 n3      1  DFA       -0.3081
     20 H4          6.5758    2.2529    1.1442 h1      1  DFA        0.0501
     21 H5          6.0458    1.9229   -0.5158 h1      1  DFA        0.0501
     22 H6         -5.1842   -0.2371    1.3142 hn      1  DFA        0.1227
     23 H8          7.7058    0.3629    0.2442 hn      1  DFA        0.1227
     24 H10        -1.5442   -1.6671    1.0542 ha      1  DFA        0.0648
     25 H11         0.9458   -0.7471    0.3942 ha      1  DFA        0.0648
     26 H12         2.1558    0.7429    3.0242 ha      1  DFA        0.0648
     27 H13         4.8658    0.3829    2.9242 ha      1  DFA        0.0648
     28 O          -3.2142    3.4829   -3.6558 os      2  FDE       -0.3212
     29 C          -2.8042    2.7929   -4.7758 cc      2  FDE        0.0455
     30 C3         -3.7842    1.9829   -5.3058 cd      2  FDE       -0.0364
     31 C4         -4.5042    3.0329   -3.5158 cc      2  FDE        0.0725
     32 C5         -4.9142    2.1529   -4.4758 cd      2  FDE       -0.0322
     33 C6         -5.3642    3.5229   -2.3758 c3      2  FDE        0.0457
     34 N          -6.2742    2.4829   -1.8258 n3      2  FDE       -0.2919
     35 H          -5.9442    4.3629   -2.7658 h1      2  FDE        0.0503
     36 H1         -4.7242    3.9329   -1.5758 h1      2  FDE        0.0503
     37 C7         -7.5842    3.0529   -1.4258 c3      2  FDE        0.0245
     38 C8         -5.6842    1.5829   -0.7958 c3      2  FDE        0.0261
     39 C9         -4.3442    0.8929   -1.1758 c3      2  FDE        0.0791
     40 H2         -6.4042    0.7829   -0.5758 h1      2  FDE        0.0458
     41 H3         -5.5342    2.1429    0.1342 h1      2  FDE        0.0458
     42 C1         -4.1042   -0.4371   -0.4258 c3      2  FDE        0.0229
     43 H5         -3.1142   -0.8171   -0.7158 h1      2  FDE        0.0456
     44 H4         -4.8242   -1.1671   -0.8058 h1      2  FDE        0.0456
     45 O1         -3.2542    1.7929   -0.9658 oh      2  FDE       -0.3905
     46 H7         -4.3942    0.6429   -2.2458 h1      2  FDE        0.0628
     47 C10        -8.7042    2.0129   -1.2158 c3      2  FDE        0.0639
     48 H8         -7.9242    3.7429   -2.2158 h1      2  FDE        0.0458
     49 H9         -7.4542    3.6429   -0.5058 h1      2  FDE        0.0458
     50 O2         -9.9142    2.6929   -0.8858 oh      2  FDE       -0.3921
     51 C2         -8.9442    1.1329   -2.4658 c3      2  FDE       -0.0377
     52 H10        -8.4342    1.3629   -0.3758 h1      2  FDE        0.0611
     53 H11        -9.1642    1.7629   -3.3458 hc      2  FDE        0.0257
     54 H12        -9.7842    0.4529   -2.3058 hc      2  FDE        0.0257
     55 H13        -8.0642    0.5229   -2.6858 hc      2  FDE        0.0257
     56 H14       -10.1542    3.2429   -1.6458 ho      2  FDE        0.2105
     57 H15        -2.4442    1.3629   -1.3058 ho      2  FDE        0.2106
     58 H16        -1.7942    2.9629   -5.0958 h4      2  FDE        0.0902
     59 H17        -3.7042    1.3529   -6.1858 ha      2  FDE        0.0645
     60 H18        -5.8742    1.6729   -4.5758 ha      2  FDE        0.0648
     61 O           2.5938   -3.9451   -1.0248 os      3  FDE       -0.3212
     62 C           1.5288   -3.0981   -1.2198 cc      3  FDE        0.0455
     63 C3          1.7648   -1.8051   -0.8118 cd      3  FDE       -0.0364
     64 C4          3.5208   -3.0951   -0.4708 cc      3  FDE        0.0725
     65 C5          3.0898   -1.7991   -0.3288 cd      3  FDE       -0.0322
     66 C6          4.9068   -3.5831   -0.1368 c3      3  FDE        0.0457
     67 N           5.5368   -2.8501    0.9922 n3      3  FDE       -0.2919
     68 H           5.5088   -3.4661   -1.0518 h1      3  FDE        0.0503
     69 H1          4.8778   -4.6631    0.0772 h1      3  FDE        0.0503
     70 C7          6.9648   -2.5531    0.7462 c3      3  FDE        0.0261
     71 C8          5.2718   -3.4211    2.3412 c3      3  FDE        0.0245
     72 C9          3.7738   -3.5871    2.7162 c3      3  FDE        0.0639
     73 H2          5.7038   -2.7531    3.0972 h1      3  FDE        0.0458
     74 H3          5.7728   -4.3921    2.4402 h1      3  FDE        0.0458
     75 C1          3.5818   -3.5971    4.2542 c3      3  FDE       -0.0377
     76 H4          4.1428   -4.4201    4.7172 hc      3  FDE        0.0257
     77 H5          2.5218   -3.7161    4.5012 hc      3  FDE        0.0257
     78 H6          3.9268   -2.6471    4.6822 hc      3  FDE        0.0257
     79 O1          3.2708   -4.8281    2.2062 oh      3  FDE       -0.3921
     80 H7          3.2078   -2.7481    2.3102 h1      3  FDE        0.0611
     81 C10         7.5688   -1.4641    1.6602 c3      3  FDE        0.0791
     82 H8          7.0818   -2.2011   -0.2968 h1      3  FDE        0.0458
     83 H9          7.5578   -3.4741    0.8472 h1      3  FDE        0.0458
     84 O2          8.9238   -1.2351    1.2962 oh      3  FDE       -0.3905
     85 C2          6.7888   -0.1241    1.5792 c3      3  FDE        0.0229
     86 H10         7.5468   -1.8071    2.7042 h1      3  FDE        0.0628
     87 H12         7.2718    0.6389    2.1972 h1      3  FDE        0.0456
     88 H11         5.7598   -0.2521    1.9392 h1      3  FDE        0.0456
     89 H14         8.9228   -0.8831    0.3792 ho      3  FDE        0.2106
     90 H15         2.2988   -4.7881    2.2372 ho      3  FDE        0.2105
     91 H16         0.6468   -3.5411   -1.6608 h4      3  FDE        0.0902
     92 H17         1.0918   -0.9671   -0.8728 ha      3  FDE        0.0645
     93 H18         3.6498   -0.9561    0.0602 ha      3  FDE        0.0648
@<TRIPOS>BOND
     1     1     2    1
     2     2     3    1
     3     2     4    1
     4     2     5    1
     5     3     6    1
     6     3     7    2
     7     6     8    1
     8     8     9    2
     9     7     9    1
    10     8    10    1
    11    10    11    1
    12    10    12    1
    13    10    13    1
    14    11    14    2
    15    14    15    1
    16    11    16    1
    17    16    17    1
    18    15    17    2
    19    17    18    1
    20    18    19    1
    21    18    20    1
    22    18    21    1
    23     1    22    1
    24    19    23    1
    25     7    24    1
    26     9    25    1
    27    14    26    1
    28    15    27    1
    29    28    29    1
    30    29    30    2
    31    28    31    1
    32    31    32    2
    33    30    32    1
    34    31    33    1
    35    33    34    1
    36    33    35    1
    37    33    36    1
    38    34    37    1
    39    34    38    1
    40    38    39    1
    41    38    40    1
    42    38    41    1
    43    39    42    1
    44    42    43    1
    45    42    44    1
    46    39    45    1
    47    39    46    1
    48    37    47    1
    49    37    48    1
    50    37    49    1
    51    47    50    1
    52    47    51    1
    53    47    52    1
    54    51    53    1
    55    51    54    1
    56    51    55    1
    57    50    56    1
    58    45    57    1
    59    29    58    1
    60    30    59    1
    61    32    60    1
    62     1    42    1
    63    61    62    1
    64    62    63    2
    65    61    64    1
    66    64    65    2
    67    63    65    1
    68    64    66    1
    69    66    67    1
    70    66    68    1
    71    66    69    1
    72    67    70    1
    73    67    71    1
    74    71    72    1
    75    71    73    1
    76    71    74    1
    77    72    75    1
    78    75    76    1
    79    75    77    1
    80    75    78    1
    81    72    79    1
    82    72    80    1
    83    70    81    1
    84    70    82    1
    85    70    83    1
    86    81    84    1
    87    81    85    1
    88    81    86    1
    89    85    87    1
    90    85    88    1
    91    84    89    1
    92    79    90    1
    93    62    91    1
    94    63    92    1
    95    65    93    1
    96    19    85    1
@<TRIPOS>SUBSTRUCTURE
     1 DFA          1 RESIDUE
     2 FDE          1 RESIDUE
     3 FDE          1 RESIDUE