@<TRIPOS>MOLECULE
DFAFDE-2
    61    63  2  0  0
SMALL
gas

@<TRIPOS>ATOM
      1 N1         -9.1371   -3.0918   -0.1520 n3      1  DFA       -0.3248
      2 C          -8.4671   -1.8018    0.0680 c3      1  DFA        0.0403
      3 C1         -7.0271   -1.7918   -0.3620 cc      1  DFA        0.0725
      4 H          -8.5271   -1.5318    1.1270 h1      1  DFA        0.0498
      5 H1         -8.9971   -1.0218   -0.4920 h1      1  DFA        0.0498
      6 O          -6.2071   -0.7718    0.0370 os      1  DFA       -0.3174
      7 C2         -6.4271   -2.7118   -1.1830 cd      1  DFA       -0.0319
      8 C3         -5.0371   -1.1018   -0.6030 cc      1  DFA        0.0654
      9 C4         -5.0971   -2.2418   -1.3530 cd      1  DFA       -0.0327
     10 C5         -3.8471   -0.1818   -0.5220 c3      1  DFA        0.0418
     11 C6         -2.5271   -0.8818   -0.3330 cc      1  DFA        0.0654
     12 H2         -3.9871    0.5282    0.2970 hc      1  DFA        0.0409
     13 H3         -3.8071    0.4182   -1.4420 hc      1  DFA        0.0409
     14 C7         -2.3271   -1.9718    0.4770 cd      1  DFA       -0.0327
     15 C8         -0.9271   -2.2118    0.4170 cd      1  DFA       -0.0319
     16 O1         -1.3871   -0.3818   -0.9120 os      1  DFA       -0.3174
     17 C9         -0.4371   -1.2418   -0.4220 cc      1  DFA        0.0727
     18 C10         1.0129   -1.0118   -0.7520 c3      1  DFA        0.0429
     19 N2          1.8329   -2.2218   -0.6030 n3      1  DFA       -0.3081
     20 H4          1.4029   -0.2218   -0.0920 h1      1  DFA        0.0501
     21 H5          1.0929   -0.6518   -1.7820 h1      1  DFA        0.0501
     22 H6        -10.1171   -3.0218    0.1380 hn      1  DFA        0.1188
     23 H7         -9.1371   -3.3118   -1.1430 hn      1  DFA        0.1188
     24 H8          1.8129   -2.5318    0.3670 hn      1  DFA        0.1227
     25 H10        -6.8771   -3.5918   -1.6430 ha      1  DFA        0.0648
     26 H11        -4.3171   -2.6918   -1.9620 ha      1  DFA        0.0648
     27 H12        -3.0571   -2.5118    1.0670 ha      1  DFA        0.0648
     28 H13        -0.3671   -2.9818    0.9380 ha      1  DFA        0.0648
     29 O           5.3599    3.3692   -1.6170 os      2  FDE       -0.3212
     30 C           4.6839    3.7902   -2.7380 cc      2  FDE        0.0455
     31 C5          3.3179    3.6492   -2.6490 cd      2  FDE       -0.0364
     32 C6          4.3249    2.9582   -0.8120 cc      2  FDE        0.0725
     33 C7          3.0779    3.1122   -1.3670 cd      2  FDE       -0.0322
     34 C8          4.5909    2.4602    0.5860 c3      2  FDE        0.0457
     35 N           3.5829    1.4792    1.0660 n3      2  FDE       -0.2919
     36 H           4.6009    3.3492    1.2370 h1      2  FDE        0.0503
     37 H1          5.6019    2.0282    0.6380 h1      2  FDE        0.0503
     38 C9          3.1969    1.7092    2.4740 c3      2  FDE        0.0245
     39 C10         3.8929    0.0562    0.7590 c3      2  FDE        0.0261
     40 C3          4.1329   -0.2698   -0.7410 c3      2  FDE        0.0791
     41 H2          3.0449   -0.5648    1.0740 h1      2  FDE        0.0458
     42 H3          4.7679   -0.2688    1.3370 h1      2  FDE        0.0458
     43 C1          3.8499   -1.7638   -1.0390 c3      2  FDE        0.0229
     44 H4          4.4999   -2.4168   -0.4410 h1      2  FDE        0.0456
     45 H5          4.0239   -1.9768   -2.0990 h1      2  FDE        0.0456
     46 O1          5.4959   -0.0048   -1.0940 oh      2  FDE       -0.3905
     47 H7          3.4549    0.3312   -1.3500 h1      2  FDE        0.0628
     48 C4          1.8889    1.0132    2.9130 c3      2  FDE        0.0639
     49 H8          3.0539    2.7962    2.6330 h1      2  FDE        0.0458
     50 H9          4.0129    1.3892    3.1390 h1      2  FDE        0.0458
     51 O2          1.6019    1.3492    4.2640 oh      2  FDE       -0.3921
     52 C2          0.6809    1.4112    2.0230 c3      2  FDE       -0.0377
     53 H10         2.0139   -0.0768    2.8480 h1      2  FDE        0.0611
     54 H11         0.5379    2.5012    2.0200 hc      2  FDE        0.0257
     55 H12        -0.2361    0.9432    2.3900 hc      2  FDE        0.0257
     56 H13         0.8379    1.0852    0.9870 hc      2  FDE        0.0257
     57 H14         1.4449    2.3172    4.2960 ho      2  FDE        0.2105
     58 H15         5.5509    0.0222   -2.0640 ho      2  FDE        0.2106
     59 H16         5.2949    4.1732   -3.5440 h4      2  FDE        0.0902
     60 H17         2.5829    3.9172   -3.3880 ha      2  FDE        0.0645
     61 H18         2.1199    2.8722   -0.9190 ha      2  FDE        0.0648
@<TRIPOS>BOND
     1     1     2    1
     2     2     3    1
     3     2     4    1
     4     2     5    1
     5     3     6    1
     6     3     7    2
     7     6     8    1
     8     8     9    2
     9     7     9    1
    10     8    10    1
    11    10    11    1
    12    10    12    1
    13    10    13    1
    14    11    14    2
    15    14    15    1
    16    11    16    1
    17    16    17    1
    18    15    17    2
    19    17    18    1
    20    18    19    1
    21    18    20    1
    22    18    21    1
    23     1    22    1
    24     1    23    1
    25    19    24    1
    26     7    25    1
    27     9    26    1
    28    14    27    1
    29    15    28    1
    30    29    30    1
    31    30    31    2
    32    29    32    1
    33    32    33    2
    34    31    33    1
    35    32    34    1
    36    34    35    1
    37    34    36    1
    38    34    37    1
    39    35    38    1
    40    35    39    1
    41    39    40    1
    42    39    41    1
    43    39    42    1
    44    40    43    1
    45    43    44    1
    46    43    45    1
    47    40    46    1
    48    40    47    1
    49    38    48    1
    50    38    49    1
    51    38    50    1
    52    48    51    1
    53    48    52    1
    54    48    53    1
    55    52    54    1
    56    52    55    1
    57    52    56    1
    58    51    57    1
    59    46    58    1
    60    30    59    1
    61    31    60    1
    62    33    61    1
    63    19    43    1
@<TRIPOS>SUBSTRUCTURE
     1 DFA          1 RESIDUE
     2 FDE          1 RESIDUE
