@<TRIPOS>MOLECULE
DFA
   93    96     1     0     0
SMALL
gas


@<TRIPOS>ATOM
      1 N1          16.9900    10.9300    15.8800 n3         1 DFA      -0.291804
      2 C           17.8500    11.8600    16.6300 c3         1 DFA       0.045692
      3 C1          19.3200    11.8100    16.2900 cc         1 DFA       0.072951
      4 H           17.7300    11.6700    17.7000 h1         1 DFA       0.050290
      5 H1          17.5000    12.8900    16.4600 h1         1 DFA       0.050290
      6 O           20.0400    12.9700    16.2400 os         1 DFA      -0.317384
      7 C2          20.0200    10.6900    15.9300 cd         1 DFA      -0.031858
      8 C3          21.2500    12.5200    15.7900 cc         1 DFA       0.065414
      9 C4          21.3100    11.1600    15.5800 cd         1 DFA      -0.032741
     10 C5          22.3500    13.4900    15.4800 c3         1 DFA       0.041833
     11 C6          23.7300    13.0200    15.8600 cc         1 DFA       0.065413
     12 H2          22.1500    14.4400    15.9900 hc         1 DFA       0.040856
     13 H3          22.3300    13.7300    14.4100 hc         1 DFA       0.040856
     14 C7          24.0300    12.3700    17.0300 cd         1 DFA      -0.032741
     15 C8          25.4400    12.1800    16.9900 cd         1 DFA      -0.031874
     16 O1          24.8000    13.2800    15.0600 os         1 DFA      -0.317401
     17 C9          25.8200    12.7500    15.7900 cc         1 DFA       0.072502
     18 C10         27.2400    12.8600    15.3200 c3         1 DFA       0.040287
     19 N2          27.9400    11.5700    15.3500 n3         1 DFA      -0.324821
     20 H4          27.7700    13.5800    15.9600 h1         1 DFA       0.049825
     21 H5          27.2500    13.2600    14.3000 h1         1 DFA       0.049825
     22 H8          27.9800    11.2200    16.3100 hn         1 DFA       0.118783
     23 H9          28.9000    11.6900    15.0500 hn         1 DFA       0.118783
     24 H10         19.6500     9.6700    15.8700 ha         1 DFA       0.064842
     25 H11         22.1400    10.5800    15.1900 ha         1 DFA       0.064804
     26 H12         23.3600    12.0800    17.8300 ha         1 DFA       0.064804
     27 H13         26.0600    11.7200    17.7400 ha         1 DFA       0.064841
     28 O           17.9900    14.7700    11.1300 os         2 FDE      -0.321161
     29 C           18.3700    14.0700    10.0100 cc         2 FDE       0.045538
     30 C3          17.3800    13.2700     9.4900 cd         2 FDE      -0.036413
     31 C4          16.6900    14.3400    11.3000 cc         2 FDE       0.072549
     32 C5          16.2600    13.4600    10.3400 cd         2 FDE      -0.032169
     33 C6          15.8500    14.8500    12.4400 c3         2 FDE       0.045676
     34 N           14.9400    13.8300    13.0000 n3         2 FDE      -0.291867
     35 H           15.2800    15.7000    12.0500 h1         2 FDE       0.050290
     36 H1          16.5000    15.2600    13.2300 h1         2 FDE       0.050290
     37 C7          13.6400    14.4200    13.4200 c3         2 FDE       0.024533
     38 C8          15.5200    12.9200    14.0400 c3         2 FDE       0.026075
     39 C9          16.8500    12.2200    13.6400 c3         2 FDE       0.079354
     40 H2          14.8000    12.1300    14.2700 h1         2 FDE       0.045830
     41 H3          15.6900    13.4800    14.9600 h1         2 FDE       0.045830
     42 C1          17.0900    10.8900    14.4000 c3         2 FDE       0.026076
     43 H5          18.0700    10.5000    14.1100 h1         2 FDE       0.045830
     44 H6          16.3600    10.1600    14.0300 h1         2 FDE       0.045830
     45 O1          17.9600    13.1100    13.8400 oh         2 FDE      -0.390464
     46 H7          16.7900    11.9600    12.5800 h1         2 FDE       0.062782
     47 C10         12.5100    13.4000    13.6500 c3         2 FDE       0.063861
     48 H8          13.3000    15.1100    12.6400 h1         2 FDE       0.045768
     49 H9          13.7900    15.0200    14.3300 h1         2 FDE       0.045768
     50 O2          11.3100    14.1000    14.0000 oh         2 FDE      -0.392095
     51 C2          12.2400    12.5200    12.4100 c3         2 FDE      -0.037685
     52 H10         12.7800    12.7400    14.4900 h1         2 FDE       0.061112
     53 H11         12.0100    13.1400    11.5300 hc         2 FDE       0.025722
     54 H12         11.3800    11.8600    12.5900 hc         2 FDE       0.025722
     55 H13         13.1100    11.9000    12.1700 hc         2 FDE       0.025722
     56 H14         11.0700    14.6600    13.2400 ho         2 FDE       0.210503
     57 H15         18.7600    12.6700    13.4900 ho         2 FDE       0.210585
     58 H16         19.3900    14.2200     9.6800 h4         2 FDE       0.090152
     59 H17         17.4400    12.6300     8.6200 ha         2 FDE       0.064488
     60 H18         15.2800    13.0000    10.2600 ha         2 FDE       0.064831
     61 O           14.6550     5.9060    15.8150 os         3 FDE      -0.321161
     62 C           15.6680     5.2770    16.4900 cc         3 FDE       0.045538
     63 C3          15.8000     5.6950    17.7930 cd         3 FDE      -0.036413
     64 C4          14.1660     6.7560    16.7780 cc         3 FDE       0.072549
     65 C5          14.7990     6.6690    17.9830 cd         3 FDE      -0.032169
     66 C6          12.9730     7.6400    16.4830 c3         3 FDE       0.045676
     67 N           12.9830     8.8950    17.2750 n3         3 FDE      -0.291867
     68 H           12.0890     7.0430    16.7210 h1         3 FDE       0.050290
     69 H1          12.9320     7.8590    15.4150 h1         3 FDE       0.050290
     70 C7          11.6300     9.2290    17.7880 c3         3 FDE       0.024533
     71 C8          13.6780    10.0500    16.6380 c3         3 FDE       0.026075
     72 C9          15.1550     9.7990    16.2320 c3         3 FDE       0.079354
     73 H2          13.6830    10.8860    17.3440 h1         3 FDE       0.045830
     74 H3          13.1230    10.3770    15.7500 h1         3 FDE       0.045830
     75 C1          15.9470    11.1130    16.1600 c3         3 FDE       0.026076
     76 H4          15.5020    11.7990    15.4200 h1         3 FDE       0.045830
     77 H6          15.9470    11.6260    17.1310 h1         3 FDE       0.045830
     78 O1          15.2170     9.1650    14.9550 oh         3 FDE      -0.390464
     79 H7          15.6280     9.1670    16.9980 h1         3 FDE       0.062782
     80 C10         11.6160    10.2830    18.9320 c3         3 FDE       0.063861
     81 H8          11.1550     8.3250    18.1750 h1         3 FDE       0.045768
     82 H9          11.0000     9.5920    16.9620 h1         3 FDE       0.045768
     83 O2          10.2750    10.4730    19.3660 oh         3 FDE      -0.392095
     84 C2          12.4840     9.8470    20.1430 c3         3 FDE      -0.037685
     85 H10         12.0020    11.2280    18.5590 h1         3 FDE       0.061112
     86 H11         12.1610     8.8650    20.5140 hc         3 FDE       0.025722
     87 H12         12.4010    10.5740    20.9540 hc         3 FDE       0.025722
     88 H13         13.5400     9.7670    19.8550 hc         3 FDE       0.025722
     89 H14          9.9610     9.6360    19.7410 ho         3 FDE       0.210503
     90 H15         16.1210     8.8070    14.8480 ho         3 FDE       0.210585
     91 H16         16.2250     4.5320    15.9410 h4         3 FDE       0.090152
     92 H17         16.5230     5.3330    18.5270 ha         3 FDE       0.064488
     93 H18         14.5850     7.2240    18.8960 ha         3 FDE       0.064831
@<TRIPOS>BOND
     1     1     2 1   
     2     2     3 1   
     3     2     4 1   
     4     2     5 1   
     5     3     6 1   
     6     3     7 2   
     7     6     8 1   
     8     8     9 2   
     9     7     9 1   
    10     8    10 1   
    11    10    11 1   
    12    10    12 1   
    13    10    13 1   
    14    11    14 2   
    15    14    15 1   
    16    11    16 1   
    17    16    17 1   
    18    15    17 2   
    19    17    18 1   
    20    18    19 1   
    21    18    20 1   
    22    18    21 1   
    23    19    22 1   
    24    19    23 1   
    25     7    24 1   
    26     9    25 1   
    27    14    26 1   
    28    15    27 1   
    29    28    29 1   
    30    29    30 2   
    31    28    31 1   
    32    31    32 2   
    33    30    32 1   
    34    31    33 1   
    35    33    34 1   
    36    33    35 1   
    37    33    36 1   
    38    34    37 1   
    39    34    38 1   
    40    38    39 1   
    41    38    40 1   
    42    38    41 1   
    43    39    42 1   
    44    42    43 1   
    45    42    44 1   
    46    39    45 1   
    47    39    46 1   
    48    37    47 1   
    49    37    48 1   
    50    37    49 1   
    51    47    50 1   
    52    47    51 1   
    53    47    52 1   
    54    51    53 1   
    55    51    54 1   
    56    51    55 1   
    57    50    56 1   
    58    45    57 1   
    59    29    58 1   
    60    30    59 1   
    61    32    60 1   
    62     1    42 1   
    63    61    62 1   
    64    62    63 2   
    65    61    64 1   
    66    64    65 2   
    67    63    65 1   
    68    64    66 1   
    69    66    67 1   
    70    66    68 1   
    71    66    69 1   
    72    67    70 1   
    73    67    71 1   
    74    71    72 1   
    75    71    73 1   
    76    71    74 1   
    77    72    75 1   
    78    75    76 1   
    79    75    77 1   
    80    72    78 1   
    81    72    79 1   
    82    70    80 1   
    83    70    81 1   
    84    70    82 1   
    85    80    83 1   
    86    80    84 1   
    87    80    85 1   
    88    84    86 1   
    89    84    87 1   
    90    84    88 1   
    91    83    89 1   
    92    78    90 1   
    93    62    91 1   
    94    63    92 1   
    95    65    93 1   
    96     1    75 1   
@<TRIPOS>SUBSTRUCTURE
     1 DFA         1 TEMP              0 ****  ****    0 ROOT
