@<TRIPOS>MOLECULE
DFAFDE2-3
    93    96  3  0  0
SMALL
gas

@<TRIPOS>ATOM
      1 N1         -0.3978    1.1831    1.2160 n3      1  DFA       -0.2918
      2 C           0.3422    2.4541    1.3360 c3      1  DFA        0.0457
      3 C1          1.8022    2.3531    0.9760 cc      1  DFA        0.0730
      4 H           0.2622    2.8131    2.3660 h1      1  DFA        0.0503
      5 H1         -0.1078    3.2131    0.6960 h1      1  DFA        0.0503
      6 O           2.6622    3.3441    1.3860 os      1  DFA       -0.3174
      7 C2          2.3622    1.4131    0.1460 cd      1  DFA       -0.0319
      8 C3          3.8222    2.9741    0.7460 cc      1  DFA        0.0654
      9 C4          3.7122    1.8331   -0.0140 cd      1  DFA       -0.0327
     10 C5          5.0222    3.8841    0.7760 c3      1  DFA        0.0418
     11 C6          6.3522    3.1831    0.9560 cc      1  DFA        0.0654
     12 H2          4.9022    4.6141    1.5760 hc      1  DFA        0.0409
     13 H3          5.0422    4.4631   -0.1540 hc      1  DFA        0.0409
     14 C7          6.5822    2.1341    1.8060 cd      1  DFA       -0.0327
     15 C8          7.9822    1.9231    1.7460 cd      1  DFA       -0.0319
     16 O1          7.4722    3.6831    0.3460 os      1  DFA       -0.3174
     17 C9          8.4422    2.8731    0.8560 cc      1  DFA        0.0725
     18 C10         9.8922    3.1231    0.5260 c3      1  DFA        0.0403
     19 N2         10.7322    1.9131    0.6560 n3      1  DFA       -0.3248
     20 H4         10.2722    3.9041    1.1760 h1      1  DFA        0.0498
     21 H5          9.9522    3.4941   -0.5140 h1      1  DFA        0.0498
     22 H8         10.7322    1.6031    1.6260 hn      1  DFA        0.1188
     23 H9         11.6922    2.1541    0.4260 hn      1  DFA        0.1188
     24 H10         1.8722    0.5741   -0.3340 ha      1  DFA        0.0648
     25 H11         4.4722    1.3731   -0.6440 ha      1  DFA        0.0648
     26 H12         5.8622    1.6131    2.4260 ha      1  DFA        0.0648
     27 H13         8.5622    1.1941    2.2960 ha      1  DFA        0.0648
     28 O          -7.6078    0.1031    4.1160 os      2  FDE       -0.3212
     29 C          -7.3578   -0.4159    5.3660 cc      2  FDE        0.0455
     30 C5         -6.0178   -0.4569    5.6760 cd      2  FDE       -0.0364
     31 C6         -6.3478    0.3841    3.6660 cc      2  FDE        0.0725
     32 C7         -5.3478    0.0841    4.5560 cd      2  FDE       -0.0322
     33 C8         -6.1378    1.0541    2.3360 c3      2  FDE        0.0457
     34 N          -4.8778    0.6431    1.6460 n3      2  FDE       -0.2919
     35 H          -6.1178    2.1341    2.5360 h1      2  FDE        0.0503
     36 H1         -6.9978    0.8741    1.6860 h1      2  FDE        0.0503
     37 C9         -4.2578    1.8041    0.9560 c3      2  FDE        0.0261
     38 C10        -4.9978   -0.5669    0.7860 c3      2  FDE        0.0245
     39 C3         -5.5878   -1.8269    1.4760 c3      2  FDE        0.0639
     40 H2         -3.9978   -0.8369    0.4260 h1      2  FDE        0.0458
     41 H3         -5.6078   -0.3369   -0.0940 h1      2  FDE        0.0458
     42 C1         -5.1278   -3.1159    0.7560 c3      2  FDE       -0.0377
     43 H4         -5.4678   -3.1269   -0.2840 hc      2  FDE        0.0257
     44 H5         -5.5378   -4.0059    1.2560 hc      2  FDE        0.0257
     45 H6         -4.0378   -3.1959    0.7660 hc      2  FDE        0.0257
     46 O1         -7.0078   -1.7859    1.4460 oh      2  FDE       -0.3921
     47 H7         -5.2178   -1.8769    2.5060 h1      2  FDE        0.0611
     48 C4         -2.7978    1.5831    0.4560 c3      2  FDE        0.0794
     49 H8         -4.2378    2.6631    1.6460 h1      2  FDE        0.0458
     50 H9         -4.8778    2.0831    0.1060 h1      2  FDE        0.0458
     51 O2         -2.3978    2.7731   -0.2140 oh      2  FDE       -0.3905
     52 C2         -1.8278    1.2341    1.6160 c3      2  FDE        0.0261
     53 H10        -2.7878    0.7631   -0.2640 h1      2  FDE        0.0628
     54 H11        -1.9578    1.9331    2.4460 h1      2  FDE        0.0458
     55 H12        -2.1078    0.2431    1.9860 h1      2  FDE        0.0458
     56 H14        -2.3978    3.5031    0.4360 ho      2  FDE        0.2106
     57 H15        -7.3378   -2.4369    2.0960 ho      2  FDE        0.2105
     58 H16        -8.2178   -0.7169    5.9360 h4      2  FDE        0.0902
     59 H17        -5.5778   -0.8169    6.6060 ha      2  FDE        0.0645
     60 H18        -4.2778    0.2341    4.4360 ha      2  FDE        0.0648
     61 O          -0.6028   -3.2419   -5.7850 os      3  FDE       -0.3212
     62 C          -1.8988   -3.6949   -5.7070 cc      3  FDE        0.0455
     63 C5         -2.5958   -3.1999   -4.6280 cd      3  FDE       -0.0364
     64 C6         -0.5328   -2.4229   -4.6840 cc      3  FDE        0.0725
     65 C7         -1.6958   -2.3459   -3.9590 cd      3  FDE       -0.0322
     66 C8          0.7202   -1.6379   -4.3900 c3      3  FDE        0.0457
     67 N           0.9202   -1.3609   -2.9440 n3      3  FDE       -0.2919
     68 H           0.6362   -0.6939   -4.9520 h1      3  FDE        0.0503
     69 H1          1.5932   -2.1659   -4.8030 h1      3  FDE        0.0503
     70 C9          1.3972    0.0151   -2.6920 c3      3  FDE        0.0261
     71 C10         1.6872   -2.4009   -2.2040 c3      3  FDE        0.0245
     72 C3          1.1192   -3.8449   -2.2940 c3      3  FDE        0.0639
     73 H2          1.6922   -2.1419   -1.1370 h1      3  FDE        0.0458
     74 H3          2.7302   -2.4089   -2.5430 h1      3  FDE        0.0458
     75 C1          1.5702   -4.6979   -1.0810 c3      3  FDE       -0.0377
     76 H4          2.6662   -4.7659   -1.0320 hc      3  FDE        0.0257
     77 H5          1.1632   -5.7119   -1.1610 hc      3  FDE        0.0257
     78 H6          1.1992   -4.2539   -0.1490 hc      3  FDE        0.0257
     79 O1          1.5922   -4.4899   -3.4820 oh      3  FDE       -0.3921
     80 H7          0.0292   -3.8009   -2.2890 h1      3  FDE        0.0611
     81 C4          1.2372    0.5021   -1.2340 c3      3  FDE        0.0794
     82 H8          0.8232    0.7141   -3.3300 h1      3  FDE        0.0458
     83 H9          2.4542    0.1001   -2.9850 h1      3  FDE        0.0458
     84 O2          1.6832    1.8481   -1.1320 oh      3  FDE       -0.3905
     85 C2         -0.2308    0.4141   -0.7390 c3      3  FDE        0.0261
     86 H10         1.8582   -0.1169   -0.5710 h1      3  FDE        0.0628
     87 H11        -0.9018    0.9851   -1.3960 h1      3  FDE        0.0458
     88 H12        -0.5748   -0.6279   -0.7250 h1      3  FDE        0.0458
     89 H14         1.0902    2.3941   -1.6910 ho      3  FDE        0.2106
     90 H15         1.0372   -5.2729   -3.6350 ho      3  FDE        0.2105
     91 H16        -2.2098   -4.3759   -6.4870 h4      3  FDE        0.0902
     92 H17        -3.6198   -3.3999   -4.3640 ha      3  FDE        0.0645
     93 H18        -1.8808   -1.7579   -3.0660 ha      3  FDE        0.0648
@<TRIPOS>BOND
     1     1     2    1
     2     2     3    1
     3     2     4    1
     4     2     5    1
     5     3     6    1
     6     3     7    2
     7     6     8    1
     8     8     9    2
     9     7     9    1
    10     8    10    1
    11    10    11    1
    12    10    12    1
    13    10    13    1
    14    11    14    2
    15    14    15    1
    16    11    16    1
    17    16    17    1
    18    15    17    2
    19    17    18    1
    20    18    19    1
    21    18    20    1
    22    18    21    1
    23    19    22    1
    24    19    23    1
    25     7    24    1
    26     9    25    1
    27    14    26    1
    28    15    27    1
    29    28    29    1
    30    29    30    2
    31    28    31    1
    32    31    32    2
    33    30    32    1
    34    31    33    1
    35    33    34    1
    36    33    35    1
    37    33    36    1
    38    34    37    1
    39    34    38    1
    40    38    39    1
    41    38    40    1
    42    38    41    1
    43    39    42    1
    44    42    43    1
    45    42    44    1
    46    42    45    1
    47    39    46    1
    48    39    47    1
    49    37    48    1
    50    37    49    1
    51    37    50    1
    52    48    51    1
    53    48    52    1
    54    48    53    1
    55    52    54    1
    56    52    55    1
    57    51    56    1
    58    46    57    1
    59    29    58    1
    60    30    59    1
    61    32    60    1
    62     1    52    1
    63    61    62    1
    64    62    63    2
    65    61    64    1
    66    64    65    2
    67    63    65    1
    68    64    66    1
    69    66    67    1
    70    66    68    1
    71    66    69    1
    72    67    70    1
    73    67    71    1
    74    71    72    1
    75    71    73    1
    76    71    74    1
    77    72    75    1
    78    75    76    1
    79    75    77    1
    80    75    78    1
    81    72    79    1
    82    72    80    1
    83    70    81    1
    84    70    82    1
    85    70    83    1
    86    81    84    1
    87    81    85    1
    88    81    86    1
    89    85    87    1
    90    85    88    1
    91    84    89    1
    92    79    90    1
    93    62    91    1
    94    63    92    1
    95    65    93    1
    96     1    85    1
@<TRIPOS>SUBSTRUCTURE
     1 DFA          1 RESIDUE
     2 FDE          1 RESIDUE
     3 FDE          1 RESIDUE