@<TRIPOS>MOLECULE
DFAFDE2-1
    93    96  3  0  0
SMALL
gas

@<TRIPOS>ATOM
      1 N1         -0.4189    1.1819    1.2250 n3      1  DFA       -0.2918
      2 C           0.3211    2.4619    1.3350 c3      1  DFA        0.0457
      3 C1          1.7811    2.3719    0.9750 cc      1  DFA        0.0730
      4 H           0.2411    2.8319    2.3650 h1      1  DFA        0.0503
      5 H1         -0.1389    3.2219    0.6850 h1      1  DFA        0.0503
      6 O           2.6411    3.3619    1.3850 os      1  DFA       -0.3174
      7 C2          2.3411    1.4419    0.1350 cd      1  DFA       -0.0319
      8 C3          3.7911    2.9919    0.7450 cc      1  DFA        0.0654
      9 C4          3.6911    1.8519   -0.0250 cd      1  DFA       -0.0327
     10 C5          4.9911    3.9019    0.7750 c3      1  DFA        0.0418
     11 C6          6.3211    3.2119    0.9550 cc      1  DFA        0.0654
     12 H2          4.8711    4.6419    1.5750 hc      1  DFA        0.0409
     13 H3          5.0211    4.4819   -0.1550 hc      1  DFA        0.0409
     14 C7          6.5511    2.1619    1.8150 cd      1  DFA       -0.0327
     15 C8          7.9511    1.9419    1.7550 cd      1  DFA       -0.0319
     16 O1          7.4411    3.7019    0.3350 os      1  DFA       -0.3174
     17 C9          8.4111    2.8819    0.8650 cc      1  DFA        0.0725
     18 C10         9.8611    3.1219    0.5150 c3      1  DFA        0.0403
     19 N2         10.6911    1.9219    0.6450 n3      1  DFA       -0.3248
     20 H4         10.2511    3.9119    1.1750 h1      1  DFA        0.0498
     21 H5          9.9211    3.5019   -0.5150 h1      1  DFA        0.0498
     22 H8         10.6911    1.6019    1.6150 hn      1  DFA        0.1188
     23 H9         11.6511    2.1519    0.4150 hn      1  DFA        0.1188
     24 H10         1.8511    0.6019   -0.3450 ha      1  DFA        0.0648
     25 H11         4.4511    1.4019   -0.6450 ha      1  DFA        0.0648
     26 H12         5.8311    1.6419    2.4450 ha      1  DFA        0.0648
     27 H13         8.5211    1.2219    2.3150 ha      1  DFA        0.0648
     28 O          -7.5989    0.0519    4.1250 os      2  FDE       -0.3212
     29 C          -7.3289   -0.4681    5.3650 cc      2  FDE        0.0455
     30 C3         -5.9989   -0.4981    5.6850 cd      2  FDE       -0.0364
     31 C4         -6.3389    0.3419    3.6750 cc      2  FDE        0.0725
     32 C5         -5.3289    0.0519    4.5650 cd      2  FDE       -0.0322
     33 C6         -6.1389    1.0219    2.3450 c3      2  FDE        0.0457
     34 N          -4.8789    0.6319    1.6550 n3      2  FDE       -0.2919
     35 H          -6.1289    2.1019    2.5550 h1      2  FDE        0.0503
     36 H1         -6.9989    0.8419    1.6950 h1      2  FDE        0.0503
     37 C7         -4.2689    1.7819    0.9550 c3      2  FDE        0.0261
     38 C8         -4.9889   -0.5881    0.7950 c3      2  FDE        0.0245
     39 C9         -5.5689   -1.8581    1.4850 c3      2  FDE        0.0639
     40 H2         -3.9889   -0.8481    0.4350 h1      2  FDE        0.0458
     41 H3         -5.5989   -0.3581   -0.0850 h1      2  FDE        0.0458
     42 C1         -5.0989   -3.1381    0.7650 c3      2  FDE       -0.0377
     43 H4         -5.4389   -3.1481   -0.2750 hc      2  FDE        0.0257
     44 H5         -5.4989   -4.0281    1.2650 hc      2  FDE        0.0257
     45 H6         -4.0089   -3.2181    0.7750 hc      2  FDE        0.0257
     46 O1         -6.9889   -1.8281    1.4550 oh      2  FDE       -0.3921
     47 H7         -5.1989   -1.8981    2.5150 h1      2  FDE        0.0611
     48 C10        -2.8089    1.5819    0.4550 c3      2  FDE        0.0794
     49 H8         -4.2589    2.6519    1.6350 h1      2  FDE        0.0458
     50 H9         -4.8989    2.0619    0.1050 h1      2  FDE        0.0458
     51 O2         -2.4189    2.7819   -0.2150 oh      2  FDE       -0.3905
     52 C2         -1.8389    1.2319    1.6150 c3      2  FDE        0.0261
     53 H10        -2.7889    0.7619   -0.2650 h1      2  FDE        0.0628
     54 H11        -1.9789    1.9319    2.4550 h1      2  FDE        0.0458
     55 H12        -2.1189    0.2419    1.9850 h1      2  FDE        0.0458
     56 H14        -2.4189    3.5019    0.4350 ho      2  FDE        0.2106
     57 H15        -7.3189   -2.4681    2.1150 ho      2  FDE        0.2105
     58 H16        -8.1889   -0.7881    5.9450 h4      2  FDE        0.0902
     59 H17        -5.5489   -0.8481    6.6050 ha      2  FDE        0.0645
     60 H18        -4.2689    0.2219    4.4450 ha      2  FDE        0.0648
     61 O          -0.5569   -3.2201   -5.8050 os      3  FDE       -0.3212
     62 C          -1.8539   -3.6711   -5.7420 cc      3  FDE        0.0455
     63 C3         -2.5619   -3.1801   -4.6680 cd      3  FDE       -0.0364
     64 C4         -0.4969   -2.4051   -4.7000 cc      3  FDE        0.0725
     65 C5         -1.6679   -2.3291   -3.9860 cd      3  FDE       -0.0322
     66 C6          0.7541   -1.6221   -4.3900 c3      3  FDE        0.0457
     67 N           0.9391   -1.3521   -2.9410 n3      3  FDE       -0.2919
     68 H           0.6761   -0.6751   -4.9490 h1      3  FDE        0.0503
     69 H1          1.6301   -2.1501   -4.7970 h1      3  FDE        0.0503
     70 C7          1.4151    0.0229   -2.6790 c3      3  FDE        0.0261
     71 C8          1.6971   -2.3951   -2.1970 c3      3  FDE        0.0245
     72 C9          1.1281   -3.8371   -2.2990 c3      3  FDE        0.0639
     73 H2          1.6921   -2.1401   -1.1300 h1      3  FDE        0.0458
     74 H3          2.7441   -2.4021   -2.5260 h1      3  FDE        0.0458
     75 C1          1.5671   -4.6961   -1.0850 c3      3  FDE       -0.0377
     76 H4          2.6621   -4.7651   -1.0250 hc      3  FDE        0.0257
     77 H5          1.1591   -5.7091   -1.1730 hc      3  FDE        0.0257
     78 H6          1.1861   -4.2561   -0.1550 hc      3  FDE        0.0257
     79 O1          1.6131   -4.4791   -3.4850 oh      3  FDE       -0.3921
     80 H7          0.0381   -3.7921   -2.3050 h1      3  FDE        0.0611
     81 C10         1.2411    0.5039   -1.2210 c3      3  FDE        0.0794
     82 H8          0.8481    0.7259   -3.3200 h1      3  FDE        0.0458
     83 H9          2.4741    0.1089   -2.9600 h1      3  FDE        0.0458
     84 O2          1.6871    1.8499   -1.1080 oh      3  FDE       -0.3905
     85 C2         -0.2329    0.4159   -0.7400 c3      3  FDE        0.0261
     86 H10         1.8541   -0.1181   -0.5540 h1      3  FDE        0.0628
     87 H11        -0.8959    0.9909   -1.4020 h1      3  FDE        0.0458
     88 H12        -0.5769   -0.6261   -0.7340 h1      3  FDE        0.0458
     89 H14         1.1001    2.3989   -1.6710 ho      3  FDE        0.2106
     90 H15         1.0591   -5.2611   -3.6460 ho      3  FDE        0.2105
     91 H16        -2.1579   -4.3491   -6.5270 h4      3  FDE        0.0902
     92 H17        -3.5889   -3.3791   -4.4150 ha      3  FDE        0.0645
     93 H18        -1.8609   -1.7441   -3.0930 ha      3  FDE        0.0648
@<TRIPOS>BOND
     1     1     2    1
     2     2     3    1
     3     2     4    1
     4     2     5    1
     5     3     6    1
     6     3     7    2
     7     6     8    1
     8     8     9    2
     9     7     9    1
    10     8    10    1
    11    10    11    1
    12    10    12    1
    13    10    13    1
    14    11    14    2
    15    14    15    1
    16    11    16    1
    17    16    17    1
    18    15    17    2
    19    17    18    1
    20    18    19    1
    21    18    20    1
    22    18    21    1
    23    19    22    1
    24    19    23    1
    25     7    24    1
    26     9    25    1
    27    14    26    1
    28    15    27    1
    29    28    29    1
    30    29    30    2
    31    28    31    1
    32    31    32    2
    33    30    32    1
    34    31    33    1
    35    33    34    1
    36    33    35    1
    37    33    36    1
    38    34    37    1
    39    34    38    1
    40    38    39    1
    41    38    40    1
    42    38    41    1
    43    39    42    1
    44    42    43    1
    45    42    44    1
    46    42    45    1
    47    39    46    1
    48    39    47    1
    49    37    48    1
    50    37    49    1
    51    37    50    1
    52    48    51    1
    53    48    52    1
    54    48    53    1
    55    52    54    1
    56    52    55    1
    57    51    56    1
    58    46    57    1
    59    29    58    1
    60    30    59    1
    61    32    60    1
    62     1    52    1
    63    61    62    1
    64    62    63    2
    65    61    64    1
    66    64    65    2
    67    63    65    1
    68    64    66    1
    69    66    67    1
    70    66    68    1
    71    66    69    1
    72    67    70    1
    73    67    71    1
    74    71    72    1
    75    71    73    1
    76    71    74    1
    77    72    75    1
    78    75    76    1
    79    75    77    1
    80    75    78    1
    81    72    79    1
    82    72    80    1
    83    70    81    1
    84    70    82    1
    85    70    83    1
    86    81    84    1
    87    81    85    1
    88    81    86    1
    89    85    87    1
    90    85    88    1
    91    84    89    1
    92    79    90    1
    93    62    91    1
    94    63    92    1
    95    65    93    1
    96     1    85    1
@<TRIPOS>SUBSTRUCTURE
     1 DFA          1 RESIDUE
     2 FDE          1 RESIDUE
     3 FDE          1 RESIDUE