@<TRIPOS>MOLECULE
DFAFDE2-6
    93    96  3  0  0
SMALL
gas

@<TRIPOS>ATOM
      1 N1        -10.7369   -1.9999   -0.2449 n3      1  DFA       -0.3248
      2 C         -10.0569   -0.7099   -0.0449 c3      1  DFA        0.0403
      3 C1         -8.6169   -0.7099   -0.4849 cc      1  DFA        0.0725
      4 H         -10.1069   -0.4399    1.0151 h1      1  DFA        0.0498
      5 H1        -10.5969    0.0701   -0.6049 h1      1  DFA        0.0498
      6 O          -7.7769    0.2811   -0.0549 os      1  DFA       -0.3174
      7 C2         -8.0569   -1.5989   -1.3649 cd      1  DFA       -0.0319
      8 C3         -6.6269   -0.0399   -0.7249 cc      1  DFA        0.0654
      9 C4         -6.7169   -1.1389   -1.5349 cd      1  DFA       -0.0327
     10 C5         -5.4269    0.8801   -0.6549 c3      1  DFA        0.0418
     11 C6         -4.1069    0.1711   -0.5349 cc      1  DFA        0.0654
     12 H2         -5.5469    1.5601    0.2051 hc      1  DFA        0.0409
     13 H3         -5.4169    1.5201   -1.5449 hc      1  DFA        0.0409
     14 C7         -3.8469   -0.8889    0.3051 cd      1  DFA       -0.0327
     15 C8         -2.4469   -1.1089    0.1851 cd      1  DFA       -0.0319
     16 O1         -3.0069    0.6701   -1.1849 os      1  DFA       -0.3174
     17 C9         -2.0169   -0.1599   -0.7049 cc      1  DFA        0.0730
     18 C10        -0.5769    0.1201   -1.0749 c3      1  DFA        0.0457
     19 N2          0.3531   -0.9599   -0.7049 n3      1  DFA       -0.2918
     20 H4         -0.2769    1.0501   -0.5749 h1      1  DFA        0.0503
     21 H5         -0.5269    0.2901   -2.1649 h1      1  DFA        0.0503
     22 H6        -11.7069   -1.9289    0.0551 hn      1  DFA        0.1188
     23 H7        -10.7569   -2.2199   -1.2349 hn      1  DFA        0.1188
     24 H10        -8.5169   -2.4389   -1.8649 ha      1  DFA        0.0648
     25 H11        -5.9569   -1.5599   -2.1849 ha      1  DFA        0.0648
     26 H12        -4.5469   -1.4089    0.9451 ha      1  DFA        0.0648
     27 H13        -1.8569   -1.8389    0.7151 ha      1  DFA        0.0648
     28 O           7.1931    0.6211   -4.0749 os      2  FDE       -0.3212
     29 C           6.8631    1.5601   -5.0149 cc      2  FDE        0.0455
     30 C5          5.5431    1.9601   -4.9449 cd      2  FDE       -0.0364
     31 C6          6.0031    0.4411   -3.4149 cc      2  FDE        0.0725
     32 C7          4.9831    1.2201   -3.8849 cd      2  FDE       -0.0322
     33 C8          5.9131   -0.4789   -2.2249 c3      2  FDE        0.0457
     34 N           4.6131   -1.1789   -2.1149 n3      2  FDE       -0.2919
     35 H           6.0831    0.1501   -1.3449 h1      2  FDE        0.0503
     36 H1          6.7331   -1.2099   -2.2549 h1      2  FDE        0.0503
     37 C9          4.2031   -1.3389   -0.6949 c3      2  FDE        0.0261
     38 C10         4.4931   -2.4499   -2.8949 c3      2  FDE        0.0245
     39 C3          4.8731   -2.3689   -4.3949 c3      2  FDE        0.0639
     40 H2          3.4631   -2.7999   -2.8449 h1      2  FDE        0.0458
     41 H3          5.1231   -3.2199   -2.4249 h1      2  FDE        0.0458
     42 C1          4.1931   -3.4899   -5.2049 c3      2  FDE       -0.0377
     43 H4          4.5031   -4.4789   -4.8349 hc      2  FDE        0.0257
     44 H5          4.4631   -3.4289   -6.2649 hc      2  FDE        0.0257
     45 H6          3.1031   -3.4199   -5.1249 hc      2  FDE        0.0257
     46 O1          6.2831   -2.4989   -4.5649 oh      2  FDE       -0.3921
     47 H7          4.5231   -1.4089   -4.8049 h1      2  FDE        0.0611
     48 C4          2.7231   -1.7299   -0.4749 c3      2  FDE        0.0794
     49 H8          4.3831   -0.3999   -0.1649 h1      2  FDE        0.0458
     50 H9          4.8431   -2.0989   -0.2249 h1      2  FDE        0.0458
     51 O2          2.5131   -1.9089    0.9351 oh      2  FDE       -0.3905
     52 C2          1.7531   -0.6389   -1.0049 c3      2  FDE        0.0261
     53 H10         2.5031   -2.6789   -0.9749 h1      2  FDE        0.0628
     54 H11         2.0231    0.3211   -0.5449 h1      2  FDE        0.0458
     55 H12         1.8931   -0.5389   -2.0949 h1      2  FDE        0.0458
     56 H14         2.6731   -1.0599    1.3651 ho      2  FDE        0.2106
     57 H15         6.5131   -2.1699   -5.4549 ho      2  FDE        0.2105
     58 H16         7.6531    1.8811   -5.6749 h4      2  FDE        0.0902
     59 H17         5.0531    2.6911   -5.5749 ha      2  FDE        0.0645
     60 H18         3.9631    1.2701   -3.5149 ha      2  FDE        0.0648
     61 O          -3.2109    1.7561    4.1791 os      3  FDE       -0.3212
     62 C          -3.4919    1.0121    5.3011 cc      3  FDE        0.0455
     63 C5         -2.3769    0.6551    6.0261 cd      3  FDE       -0.0364
     64 C6         -1.8409    1.8491    4.2501 cc      3  FDE        0.0725
     65 C7         -1.2839    1.2221    5.3381 cd      3  FDE       -0.0322
     66 C8         -1.0729    2.6511    3.2311 c3      3  FDE        0.0457
     67 N           0.3111    2.1561    3.0081 n3      3  FDE       -0.2919
     68 H          -1.0529    3.6891    3.6001 h1      3  FDE        0.0503
     69 H1         -1.6289    2.6721    2.2811 h1      3  FDE        0.0503
     70 C9          1.2931    3.2551    2.8951 c3      3  FDE        0.0245
     71 C10         0.4471    1.1241    1.9441 c3      3  FDE        0.0261
     72 C3         -0.4409   -0.1389    2.1161 c3      3  FDE        0.0794
     73 H2          1.4851    0.7671    1.9311 h1      3  FDE        0.0458
     74 H3          0.2431    1.5701    0.9631 h1      3  FDE        0.0458
     75 C1          0.1661   -1.3539    1.3701 c3      3  FDE        0.0261
     76 H5         -0.4719   -2.2339    1.5001 h1      3  FDE        0.0458
     77 H4          1.1571   -1.5889    1.7781 h1      3  FDE        0.0458
     78 O1         -1.7469    0.0971    1.5751 oh      3  FDE       -0.3905
     79 H7         -0.5049   -0.3889    3.1761 h1      3  FDE        0.0628
     80 C4          2.7671    2.8311    3.0721 c3      3  FDE        0.0639
     81 H8          1.0771    4.0091    3.6761 h1      3  FDE        0.0458
     82 H9          1.1791    3.7551    1.9211 h1      3  FDE        0.0458
     83 O2          3.6051    3.9771    2.9911 oh      3  FDE       -0.3921
     84 C2          3.0181    2.1141    4.4271 c3      3  FDE       -0.0377
     85 H10         3.0501    2.1401    2.2651 h1      3  FDE        0.0611
     86 H11         2.7111    2.7491    5.2691 hc      3  FDE        0.0257
     87 H12         4.0781    1.8731    4.5431 hc      3  FDE        0.0257
     88 H13         2.4481    1.1771    4.4811 hc      3  FDE        0.0257
     89 H14         3.3741    4.5601    3.7461 ho      3  FDE        0.2105
     90 H15        -2.3369   -0.5979    1.9141 ho      3  FDE        0.2106
     91 H16        -4.5369    0.7971    5.4771 h4      3  FDE        0.0902
     92 H17        -2.3449    0.0881    6.9391 ha      3  FDE        0.0645
     93 H18        -0.2349    1.1731    5.6071 ha      3  FDE        0.0648
@<TRIPOS>BOND
     1     1     2    1
     2     2     3    1
     3     2     4    1
     4     2     5    1
     5     3     6    1
     6     3     7    2
     7     6     8    1
     8     8     9    2
     9     7     9    1
    10     8    10    1
    11    10    11    1
    12    10    12    1
    13    10    13    1
    14    11    14    2
    15    14    15    1
    16    11    16    1
    17    16    17    1
    18    15    17    2
    19    17    18    1
    20    18    19    1
    21    18    20    1
    22    18    21    1
    23     1    22    1
    24     1    23    1
    25     7    24    1
    26     9    25    1
    27    14    26    1
    28    15    27    1
    29    28    29    1
    30    29    30    2
    31    28    31    1
    32    31    32    2
    33    30    32    1
    34    31    33    1
    35    33    34    1
    36    33    35    1
    37    33    36    1
    38    34    37    1
    39    34    38    1
    40    38    39    1
    41    38    40    1
    42    38    41    1
    43    39    42    1
    44    42    43    1
    45    42    44    1
    46    42    45    1
    47    39    46    1
    48    39    47    1
    49    37    48    1
    50    37    49    1
    51    37    50    1
    52    48    51    1
    53    48    52    1
    54    48    53    1
    55    52    54    1
    56    52    55    1
    57    51    56    1
    58    46    57    1
    59    29    58    1
    60    30    59    1
    61    32    60    1
    62    19    52    1
    63    61    62    1
    64    62    63    2
    65    61    64    1
    66    64    65    2
    67    63    65    1
    68    64    66    1
    69    66    67    1
    70    66    68    1
    71    66    69    1
    72    67    70    1
    73    67    71    1
    74    71    72    1
    75    71    73    1
    76    71    74    1
    77    72    75    1
    78    75    76    1
    79    75    77    1
    80    72    78    1
    81    72    79    1
    82    70    80    1
    83    70    81    1
    84    70    82    1
    85    80    83    1
    86    80    84    1
    87    80    85    1
    88    84    86    1
    89    84    87    1
    90    84    88    1
    91    83    89    1
    92    78    90    1
    93    62    91    1
    94    63    92    1
    95    65    93    1
    96    19    75    1
@<TRIPOS>SUBSTRUCTURE
     1 DFA          1 RESIDUE
     2 FDE          1 RESIDUE
     3 FDE          1 RESIDUE
