@<TRIPOS>MOLECULE
DFAFDE2-6
    93    96  3  0  0
SMALL
gas

@<TRIPOS>ATOM
      1 N1        -10.7412   -2.0128   -0.2412 n3      1  DFA       -0.3248
      2 C         -10.0612   -0.7228   -0.0412 c3      1  DFA        0.0403
      3 C1         -8.6212   -0.7228   -0.4812 cc      1  DFA        0.0725
      4 H         -10.1112   -0.4428    1.0188 h1      1  DFA        0.0498
      5 H1        -10.6012    0.0572   -0.6012 h1      1  DFA        0.0498
      6 O          -7.7812    0.2772   -0.0512 os      1  DFA       -0.3174
      7 C2         -8.0512   -1.6128   -1.3612 cd      1  DFA       -0.0319
      8 C3         -6.6312   -0.0428   -0.7212 cc      1  DFA        0.0654
      9 C4         -6.7212   -1.1528   -1.5312 cd      1  DFA       -0.0327
     10 C5         -5.4312    0.8672   -0.6512 c3      1  DFA        0.0418
     11 C6         -4.1012    0.1572   -0.5312 cc      1  DFA        0.0654
     12 H2         -5.5512    1.5472    0.2088 hc      1  DFA        0.0409
     13 H3         -5.4212    1.5072   -1.5412 hc      1  DFA        0.0409
     14 C7         -3.8512   -0.9028    0.3088 cd      1  DFA       -0.0327
     15 C8         -2.4512   -1.1228    0.1888 cd      1  DFA       -0.0319
     16 O1         -3.0112    0.6572   -1.1812 os      1  DFA       -0.3174
     17 C9         -2.0212   -0.1728   -0.7012 cc      1  DFA        0.0730
     18 C10        -0.5812    0.1072   -1.0812 c3      1  DFA        0.0457
     19 N2          0.3488   -0.9728   -0.7012 n3      1  DFA       -0.2918
     20 H4         -0.2812    1.0372   -0.5812 h1      1  DFA        0.0503
     21 H5         -0.5312    0.2772   -2.1612 h1      1  DFA        0.0503
     22 H6        -11.7112   -1.9328    0.0588 hn      1  DFA        0.1188
     23 H7        -10.7512   -2.2328   -1.2312 hn      1  DFA        0.1188
     24 H10        -8.5212   -2.4528   -1.8512 ha      1  DFA        0.0648
     25 H11        -5.9612   -1.5728   -2.1712 ha      1  DFA        0.0648
     26 H12        -4.5512   -1.4228    0.9488 ha      1  DFA        0.0648
     27 H13        -1.8612   -1.8628    0.7188 ha      1  DFA        0.0648
     28 O           7.1988    0.5972   -4.0512 os      2  FDE       -0.3212
     29 C           6.8688    1.5372   -4.9912 cc      2  FDE        0.0455
     30 C3          5.5588    1.9372   -4.9312 cd      2  FDE       -0.0364
     31 C4          6.0088    0.4272   -3.4012 cc      2  FDE        0.0725
     32 C5          4.9888    1.2072   -3.8612 cd      2  FDE       -0.0322
     33 C6          5.9188   -0.4928   -2.2112 c3      2  FDE        0.0457
     34 N           4.6088   -1.1928   -2.1012 n3      2  FDE       -0.2919
     35 H           6.0788    0.1272   -1.3212 h1      2  FDE        0.0503
     36 H1          6.7388   -1.2228   -2.2312 h1      2  FDE        0.0503
     37 C7          4.1988   -1.3628   -0.6812 c3      2  FDE        0.0261
     38 C8          4.4888   -2.4628   -2.8812 c3      2  FDE        0.0245
     39 C9          4.8788   -2.3828   -4.3812 c3      2  FDE        0.0639
     40 H2          3.4588   -2.8128   -2.8312 h1      2  FDE        0.0458
     41 H3          5.1088   -3.2428   -2.4012 h1      2  FDE        0.0458
     42 C1          4.1888   -3.5128   -5.1812 c3      2  FDE       -0.0377
     43 H4          4.4988   -4.4928   -4.8112 hc      2  FDE        0.0257
     44 H5          4.4688   -3.4428   -6.2412 hc      2  FDE        0.0257
     45 H6          3.0988   -3.4328   -5.1112 hc      2  FDE        0.0257
     46 O1          6.2888   -2.5228   -4.5412 oh      2  FDE       -0.3921
     47 H7          4.5288   -1.4228   -4.7812 h1      2  FDE        0.0611
     48 C10         2.7188   -1.7428   -0.4512 c3      2  FDE        0.0794
     49 H8          4.3788   -0.4128   -0.1412 h1      2  FDE        0.0458
     50 H9          4.8388   -2.1128   -0.2012 h1      2  FDE        0.0458
     51 O2          2.5088   -1.9228    0.9488 oh      2  FDE       -0.3905
     52 C2          1.7488   -0.6628   -0.9912 c3      2  FDE        0.0261
     53 H10         2.4988   -2.6928   -0.9612 h1      2  FDE        0.0628
     54 H11         2.0188    0.3072   -0.5412 h1      2  FDE        0.0458
     55 H12         1.8888   -0.5628   -2.0812 h1      2  FDE        0.0458
     56 H14         2.6688   -1.0628    1.3788 ho      2  FDE        0.2106
     57 H15         6.5188   -2.1928   -5.4212 ho      2  FDE        0.2105
     58 H16         7.6588    1.8472   -5.6612 h4      2  FDE        0.0902
     59 H17         5.0588    2.6772   -5.5612 ha      2  FDE        0.0645
     60 H18         3.9688    1.2572   -3.4912 ha      2  FDE        0.0648
     61 O          -3.2072    1.7982    4.1558 os      3  FDE       -0.3212
     62 C          -3.4902    1.0652    5.2848 cc      3  FDE        0.0455
     63 C3         -2.3752    0.7132    6.0128 cd      3  FDE       -0.0364
     64 C4         -1.8372    1.8882    4.2258 cc      3  FDE        0.0725
     65 C5         -1.2822    1.2702    5.3188 cd      3  FDE       -0.0322
     66 C6         -1.0672    2.6792    3.1988 c3      3  FDE        0.0457
     67 N           0.3148    2.1782    2.9808 n3      3  FDE       -0.2919
     68 H          -1.0452    3.7202    3.5578 h1      3  FDE        0.0503
     69 H1         -1.6242    2.6922    2.2488 h1      3  FDE        0.0503
     70 C7          1.2998    3.2742    2.8558 c3      3  FDE        0.0245
     71 C8          0.4488    1.1362    1.9258 c3      3  FDE        0.0261
     72 C9         -0.4432   -0.1228    2.1098 c3      3  FDE        0.0794
     73 H2          1.4858    0.7772    1.9158 h1      3  FDE        0.0458
     74 H3          0.2448    1.5732    0.9408 h1      3  FDE        0.0458
     75 C1          0.1618   -1.3468    1.3758 c3      3  FDE        0.0261
     76 H5         -0.4792   -2.2238    1.5138 h1      3  FDE        0.0458
     77 H4          1.1518   -1.5798    1.7858 h1      3  FDE        0.0458
     78 O1         -1.7482    0.1112    1.5668 oh      3  FDE       -0.3905
     79 H7         -0.5062   -0.3628    3.1718 h1      3  FDE        0.0628
     80 C10         2.7728    2.8472    3.0378 c3      3  FDE        0.0639
     81 H8          1.0858    4.0362    3.6308 h1      3  FDE        0.0458
     82 H9          1.1858    3.7652    1.8778 h1      3  FDE        0.0458
     83 O2          3.6138    3.9912    2.9448 oh      3  FDE       -0.3921
     84 C2          3.0218    2.1432    4.3988 c3      3  FDE       -0.0377
     85 H10         3.0538    2.1492    2.2368 h1      3  FDE        0.0611
     86 H11         2.7168    2.7872    5.2348 hc      3  FDE        0.0257
     87 H12         4.0818    1.9012    4.5168 hc      3  FDE        0.0257
     88 H13         2.4508    1.2082    4.4618 hc      3  FDE        0.0257
     89 H14         3.3838    4.5812    3.6948 ho      3  FDE        0.2105
     90 H15        -2.3402   -0.5788    1.9128 ho      3  FDE        0.2106
     91 H16        -4.5352    0.8552    5.4628 h4      3  FDE        0.0902
     92 H17        -2.3452    0.1542    6.9318 ha      3  FDE        0.0645
     93 H18        -0.2332    1.2302    5.5918 ha      3  FDE        0.0648
@<TRIPOS>BOND
     1     1     2    1
     2     2     3    1
     3     2     4    1
     4     2     5    1
     5     3     6    1
     6     3     7    2
     7     6     8    1
     8     8     9    2
     9     7     9    1
    10     8    10    1
    11    10    11    1
    12    10    12    1
    13    10    13    1
    14    11    14    2
    15    14    15    1
    16    11    16    1
    17    16    17    1
    18    15    17    2
    19    17    18    1
    20    18    19    1
    21    18    20    1
    22    18    21    1
    23     1    22    1
    24     1    23    1
    25     7    24    1
    26     9    25    1
    27    14    26    1
    28    15    27    1
    29    28    29    1
    30    29    30    2
    31    28    31    1
    32    31    32    2
    33    30    32    1
    34    31    33    1
    35    33    34    1
    36    33    35    1
    37    33    36    1
    38    34    37    1
    39    34    38    1
    40    38    39    1
    41    38    40    1
    42    38    41    1
    43    39    42    1
    44    42    43    1
    45    42    44    1
    46    42    45    1
    47    39    46    1
    48    39    47    1
    49    37    48    1
    50    37    49    1
    51    37    50    1
    52    48    51    1
    53    48    52    1
    54    48    53    1
    55    52    54    1
    56    52    55    1
    57    51    56    1
    58    46    57    1
    59    29    58    1
    60    30    59    1
    61    32    60    1
    62    19    52    1
    63    61    62    1
    64    62    63    2
    65    61    64    1
    66    64    65    2
    67    63    65    1
    68    64    66    1
    69    66    67    1
    70    66    68    1
    71    66    69    1
    72    67    70    1
    73    67    71    1
    74    71    72    1
    75    71    73    1
    76    71    74    1
    77    72    75    1
    78    75    76    1
    79    75    77    1
    80    72    78    1
    81    72    79    1
    82    70    80    1
    83    70    81    1
    84    70    82    1
    85    80    83    1
    86    80    84    1
    87    80    85    1
    88    84    86    1
    89    84    87    1
    90    84    88    1
    91    83    89    1
    92    78    90    1
    93    62    91    1
    94    63    92    1
    95    65    93    1
    96    19    75    1
@<TRIPOS>SUBSTRUCTURE
     1 DFA          1 RESIDUE
     2 FDE          1 RESIDUE
     3 FDE          1 RESIDUE