@<TRIPOS>MOLECULE
DFAFDE2
    93    96  3  0  0
SMALL
gas

@<TRIPOS>ATOM
      1 N1          0.0052   -0.4253    0.5783 n3      1  DFA       -0.2918
      2 C           0.8652    0.5147    1.3383 c3      1  DFA        0.0457
      3 C1          2.3352    0.4547    0.9983 cc      1  DFA        0.0730
      4 H           0.7452    0.3147    2.4083 h1      1  DFA        0.0503
      5 H1          0.5152    1.5347    1.1783 h1      1  DFA        0.0503
      6 O           3.0552    1.6147    0.9583 os      1  DFA       -0.3174
      7 C2          3.0352   -0.6653    0.6383 cd      1  DFA       -0.0319
      8 C3          4.2652    1.1647    0.4983 cc      1  DFA        0.0654
      9 C4          4.3252   -0.1953    0.2883 cd      1  DFA       -0.0327
     10 C5          5.3652    2.1447    0.1983 c3      1  DFA        0.0418
     11 C6          6.7452    1.6647    0.5783 cc      1  DFA        0.0654
     12 H2          5.1652    3.0847    0.7083 hc      1  DFA        0.0409
     13 H3          5.3452    2.3747   -0.8817 hc      1  DFA        0.0409
     14 C7          7.0452    1.0047    1.7483 cd      1  DFA       -0.0327
     15 C8          8.4552    0.8247    1.6983 cd      1  DFA       -0.0319
     16 O1          7.8152    1.9347   -0.2317 os      1  DFA       -0.3174
     17 C9          8.8352    1.3847    0.5083 cc      1  DFA        0.0725
     18 C10        10.2652    1.5047    0.0383 c3      1  DFA        0.0403
     19 N2         10.9652    0.2147    0.0683 n3      1  DFA       -0.3248
     20 H4         10.7852    2.2347    0.6683 h1      1  DFA        0.0498
     21 H5         10.2652    1.8947   -0.9917 h1      1  DFA        0.0498
     22 H8         11.0052   -0.1253    1.0283 hn      1  DFA        0.1188
     23 H9         11.9252    0.3447   -0.2317 hn      1  DFA        0.1188
     24 H10         2.6652   -1.6853    0.5783 ha      1  DFA        0.0648
     25 H11         5.1552   -0.7753   -0.0917 ha      1  DFA        0.0648
     26 H12         6.3752    0.7147    2.5383 ha      1  DFA        0.0648
     27 H13         9.0852    0.3547    2.4383 ha      1  DFA        0.0648
     28 O           0.9952    3.4447   -4.1417 os      2  FDE       -0.3212
     29 C           1.3852    2.7547   -5.2617 cc      2  FDE        0.0455
     30 C3          0.4052    1.9447   -5.7917 cd      2  FDE       -0.0364
     31 C4         -0.2948    3.0047   -3.9817 cc      2  FDE        0.0725
     32 C5         -0.7248    2.1247   -4.9417 cd      2  FDE       -0.0322
     33 C6         -1.1448    3.5047   -2.8417 c3      2  FDE        0.0457
     34 N          -2.0548    2.4747   -2.2917 n3      2  FDE       -0.2919
     35 H          -1.7248    4.3547   -3.2417 h1      2  FDE        0.0503
     36 H1         -0.5048    3.9147   -2.0517 h1      2  FDE        0.0503
     37 C7         -3.3548    3.0547   -1.8817 c3      2  FDE        0.0245
     38 C8         -1.4648    1.5747   -1.2517 c3      2  FDE        0.0261
     39 C9         -0.1348    0.8847   -1.6517 c3      2  FDE        0.0794
     40 H2         -2.1848    0.7747   -1.0317 h1      2  FDE        0.0458
     41 H3         -1.3048    2.1347   -0.3217 h1      2  FDE        0.0458
     42 C1          0.1052   -0.4553   -0.8917 c3      2  FDE        0.0261
     43 H5          1.0952   -0.8353   -1.1917 h1      2  FDE        0.0458
     44 H6         -0.6248   -1.1853   -1.2717 h1      2  FDE        0.0458
     45 O1          0.9652    1.7647   -1.4417 oh      2  FDE       -0.3905
     46 H7         -0.1948    0.6247   -2.7117 h1      2  FDE        0.0628
     47 C10        -4.4848    2.0247   -1.6517 c3      2  FDE        0.0639
     48 H8         -3.7048    3.7547   -2.6617 h1      2  FDE        0.0458
     49 H9         -3.2248    3.6447   -0.9617 h1      2  FDE        0.0458
     50 O2         -5.6848    2.7147   -1.3117 oh      2  FDE       -0.3921
     51 C2         -4.7448    1.1547   -2.9017 c3      2  FDE       -0.0377
     52 H10        -4.2148    1.3747   -0.8117 h1      2  FDE        0.0611
     53 H11        -4.9648    1.7747   -3.7817 hc      2  FDE        0.0257
     54 H12        -5.5948    0.4747   -2.7317 hc      2  FDE        0.0257
     55 H13        -3.8648    0.5347   -3.1317 hc      2  FDE        0.0257
     56 H14        -5.9348    3.2747   -2.0717 ho      2  FDE        0.2105
     57 H15         1.7652    1.3347   -1.7917 ho      2  FDE        0.2106
     58 H16         2.4052    2.9147   -5.5917 h4      2  FDE        0.0902
     59 H17         0.4752    1.3147   -6.6617 ha      2  FDE        0.0645
     60 H18        -1.6948    1.6547   -5.0317 ha      2  FDE        0.0648
     61 O          -2.2908   -5.4543    0.3833 os      3  FDE       -0.3212
     62 C          -1.2778   -6.1033    1.0483 cc      3  FDE        0.0455
     63 C3         -1.1358   -5.7143    2.3613 cd      3  FDE       -0.0364
     64 C4         -2.7828   -4.6333    1.3693 cc      3  FDE        0.0725
     65 C5         -2.1428   -4.7523    2.5783 cd      3  FDE       -0.0322
     66 C6         -3.9778   -3.7523    1.1093 c3      3  FDE        0.0457
     67 N          -3.9908   -2.5143    1.9313 n3      3  FDE       -0.2919
     68 H          -4.8698   -4.3633    1.3253 h1      3  FDE        0.0503
     69 H1         -4.0268   -3.5023    0.0393 h1      3  FDE        0.0503
     70 C7         -5.3358   -2.1963    2.4553 c3      3  FDE        0.0245
     71 C8         -3.2998   -1.3453    1.3203 c3      3  FDE        0.0261
     72 C9         -1.8188   -1.5793    0.9133 c3      3  FDE        0.0794
     73 H2         -3.2898   -0.5233    2.0463 h1      3  FDE        0.0458
     74 H3         -3.8578   -0.9983    0.4423 h1      3  FDE        0.0458
     75 C1         -1.0348   -0.2433    0.8683 c3      3  FDE        0.0261
     76 H4         -1.4808    0.4517    0.1443 h1      3  FDE        0.0458
     77 H6         -1.0348    0.2267    1.8593 h1      3  FDE        0.0458
     78 O1         -1.7508   -2.1703   -0.3907 oh      3  FDE       -0.3905
     79 H7         -1.3428   -2.2263    1.6523 h1      3  FDE        0.0628
     80 C10        -5.3578   -1.1873    3.6243 c3      3  FDE        0.0639
     81 H8         -5.8048   -3.1293    2.8253 h1      3  FDE        0.0458
     82 H9         -5.9698   -1.8153    1.6413 h1      3  FDE        0.0458
     83 O2         -6.6958   -1.0033    4.0693 oh      3  FDE       -0.3921
     84 C2         -4.4838   -1.6493    4.8213 c3      3  FDE       -0.0377
     85 H10        -4.9738   -0.2173    3.2783 h1      3  FDE        0.0611
     86 H11        -4.8008   -2.6383    5.1793 hc      3  FDE        0.0257
     87 H12        -4.5618   -0.9393    5.6493 hc      3  FDE        0.0257
     88 H13        -3.4278   -1.7163    4.5283 hc      3  FDE        0.0257
     89 H14        -7.0058   -1.8663    4.4193 ho      3  FDE        0.2105
     90 H15        -0.8528   -2.5253   -0.5077 ho      3  FDE        0.2106
     91 H16        -0.7208   -6.8273    0.4703 h4      3  FDE        0.0902
     92 H17        -0.4258   -6.0863    3.0803 ha      3  FDE        0.0645
     93 H18        -2.3618   -4.2203    3.4983 ha      3  FDE        0.0648
@<TRIPOS>BOND
     1     1     2    1
     2     2     3    1
     3     2     4    1
     4     2     5    1
     5     3     6    1
     6     3     7    2
     7     6     8    1
     8     8     9    2
     9     7     9    1
    10     8    10    1
    11    10    11    1
    12    10    12    1
    13    10    13    1
    14    11    14    2
    15    14    15    1
    16    11    16    1
    17    16    17    1
    18    15    17    2
    19    17    18    1
    20    18    19    1
    21    18    20    1
    22    18    21    1
    23    19    22    1
    24    19    23    1
    25     7    24    1
    26     9    25    1
    27    14    26    1
    28    15    27    1
    29    28    29    1
    30    29    30    2
    31    28    31    1
    32    31    32    2
    33    30    32    1
    34    31    33    1
    35    33    34    1
    36    33    35    1
    37    33    36    1
    38    34    37    1
    39    34    38    1
    40    38    39    1
    41    38    40    1
    42    38    41    1
    43    39    42    1
    44    42    43    1
    45    42    44    1
    46    39    45    1
    47    39    46    1
    48    37    47    1
    49    37    48    1
    50    37    49    1
    51    47    50    1
    52    47    51    1
    53    47    52    1
    54    51    53    1
    55    51    54    1
    56    51    55    1
    57    50    56    1
    58    45    57    1
    59    29    58    1
    60    30    59    1
    61    32    60    1
    62     1    42    1
    63    61    62    1
    64    62    63    2
    65    61    64    1
    66    64    65    2
    67    63    65    1
    68    64    66    1
    69    66    67    1
    70    66    68    1
    71    66    69    1
    72    67    70    1
    73    67    71    1
    74    71    72    1
    75    71    73    1
    76    71    74    1
    77    72    75    1
    78    75    76    1
    79    75    77    1
    80    72    78    1
    81    72    79    1
    82    70    80    1
    83    70    81    1
    84    70    82    1
    85    80    83    1
    86    80    84    1
    87    80    85    1
    88    84    86    1
    89    84    87    1
    90    84    88    1
    91    83    89    1
    92    78    90    1
    93    62    91    1
    94    63    92    1
    95    65    93    1
    96     1    75    1
@<TRIPOS>SUBSTRUCTURE
     1 DFA          1 RESIDUE
     2 FDE          1 RESIDUE
     3 FDE          1 RESIDUE