@<TRIPOS>MOLECULE
DFAFDE
    61    63  2  0  0
SMALL
gas

@<TRIPOS>ATOM
      1 N1         -0.3849    0.6672   -0.8001 n3      1  DFA       -0.3081
      2 C           0.2851    1.9672   -0.5801 c3      1  DFA        0.0429
      3 C1          1.7251    1.9672   -1.0001 cc      1  DFA        0.0727
      4 H           0.2251    2.2272    0.4799 h1      1  DFA        0.0501
      5 H1         -0.2449    2.7472   -1.1501 h1      1  DFA        0.0501
      6 O           2.5451    2.9872   -0.6101 os      1  DFA       -0.3174
      7 C2          2.3251    1.0472   -1.8301 cd      1  DFA       -0.0319
      8 C3          3.7151    2.6572   -1.2501 cc      1  DFA        0.0654
      9 C4          3.6551    1.5072   -2.0001 cd      1  DFA       -0.0327
     10 C5          4.9051    3.5772   -1.1701 c3      1  DFA        0.0418
     11 C6          6.2251    2.8672   -0.9801 cc      1  DFA        0.0654
     12 H2          4.7651    4.2872   -0.3501 hc      1  DFA        0.0409
     13 H3          4.9451    4.1772   -2.0901 hc      1  DFA        0.0409
     14 C7          6.4351    1.7872   -0.1701 cd      1  DFA       -0.0327
     15 C8          7.8251    1.5372   -0.2301 cd      1  DFA       -0.0319
     16 O1          7.3651    3.3772   -1.5601 os      1  DFA       -0.3174
     17 C9          8.3151    2.5172   -1.0701 cc      1  DFA        0.0725
     18 C10         9.7651    2.7472   -1.4001 c3      1  DFA        0.0403
     19 N2         10.5851    1.5372   -1.2501 n3      1  DFA       -0.3248
     20 H4         10.1551    3.5372   -0.7401 h1      1  DFA        0.0498
     21 H5          9.8451    3.1072   -2.4301 h1      1  DFA        0.0498
     22 H6         -0.3949    0.4472   -1.7901 hn      1  DFA        0.1227
     23 H8         10.5751    1.2372   -0.2701 hn      1  DFA        0.1188
     24 H9         11.5651    1.7572   -1.4601 hn      1  DFA        0.1188
     25 H10         1.8751    0.1672   -2.2901 ha      1  DFA        0.0648
     26 H11         4.4351    1.0672   -2.6001 ha      1  DFA        0.0648
     27 H12         5.6951    1.2372    0.4099 ha      1  DFA        0.0648
     28 H13         8.3851    0.7772    0.2899 ha      1  DFA        0.0648
     29 O          -3.2919   -4.4118   -1.0281 os      2  FDE       -0.3212
     30 C          -2.2249   -5.0278   -0.4171 cc      2  FDE        0.0455
     31 C5         -2.0949   -4.7188    0.9179 cd      2  FDE       -0.0364
     32 C6         -3.8289   -3.6968    0.0159 cc      2  FDE        0.0725
     33 C7         -3.1659   -3.8488    1.2089 cd      2  FDE       -0.0322
     34 C8         -5.0879   -2.8908   -0.1741 c3      2  FDE        0.0457
     35 N          -5.1799   -1.7148    0.7299 n3      2  FDE       -0.2919
     36 H          -5.9299   -3.5788    0.0069 h1      2  FDE        0.0503
     37 H1         -5.1699   -2.5738   -1.2251 h1      2  FDE        0.0503
     38 C9         -6.5379   -1.5338    1.2849 c3      2  FDE        0.0245
     39 C10        -4.5839   -0.4608    0.1939 c3      2  FDE        0.0261
     40 C3         -3.0949   -0.5568   -0.2401 c3      2  FDE        0.0791
     41 H2         -4.6249    0.3092    0.9749 h1      2  FDE        0.0458
     42 H3         -5.1779   -0.0978   -0.6541 h1      2  FDE        0.0458
     43 C1         -2.4119    0.8332   -0.2011 c3      2  FDE        0.0229
     44 H4         -2.9169    1.5412   -0.8721 h1      2  FDE        0.0456
     45 H5         -2.4329    1.2342    0.8199 h1      2  FDE        0.0456
     46 O1         -3.0019   -1.0518   -1.5811 oh      2  FDE       -0.3905
     47 H7         -2.5639   -1.2148    0.4499 h1      2  FDE        0.0628
     48 C4         -6.6179   -0.6088    2.5199 c3      2  FDE        0.0639
     49 H8         -6.9329   -2.5208    1.5949 h1      2  FDE        0.0458
     50 H9         -7.2089   -1.1458    0.5039 h1      2  FDE        0.0458
     51 O2         -7.9589   -0.5548    2.9879 oh      2  FDE       -0.3921
     52 C2         -5.6969   -1.0848    3.6759 c3      2  FDE       -0.0377
     53 H10        -6.3109    0.4082    2.2379 h1      2  FDE        0.0611
     54 H11        -5.9369   -2.1168    3.9689 hc      2  FDE        0.0257
     55 H12        -5.8149   -0.4398    4.5509 hc      2  FDE        0.0257
     56 H13        -4.6429   -1.0538    3.3699 hc      2  FDE        0.0257
     57 H14        -8.2019   -1.4588    3.2809 ho      2  FDE        0.2105
     58 H15        -2.0819   -1.3318   -1.7301 ho      2  FDE        0.2106
     59 H16        -1.6239   -5.6688   -1.0471 h4      2  FDE        0.0902
     60 H17        -1.3499   -5.0848    1.6039 ha      2  FDE        0.0645
     61 H18        -3.4109   -3.3988    2.1639 ha      2  FDE        0.0648
@<TRIPOS>BOND
     1     1     2    1
     2     2     3    1
     3     2     4    1
     4     2     5    1
     5     3     6    1
     6     3     7    2
     7     6     8    1
     8     8     9    2
     9     7     9    1
    10     8    10    1
    11    10    11    1
    12    10    12    1
    13    10    13    1
    14    11    14    2
    15    14    15    1
    16    11    16    1
    17    16    17    1
    18    15    17    2
    19    17    18    1
    20    18    19    1
    21    18    20    1
    22    18    21    1
    23     1    22    1
    24    19    23    1
    25    19    24    1
    26     7    25    1
    27     9    26    1
    28    14    27    1
    29    15    28    1
    30    29    30    1
    31    30    31    2
    32    29    32    1
    33    32    33    2
    34    31    33    1
    35    32    34    1
    36    34    35    1
    37    34    36    1
    38    34    37    1
    39    35    38    1
    40    35    39    1
    41    39    40    1
    42    39    41    1
    43    39    42    1
    44    40    43    1
    45    43    44    1
    46    43    45    1
    47    40    46    1
    48    40    47    1
    49    38    48    1
    50    38    49    1
    51    38    50    1
    52    48    51    1
    53    48    52    1
    54    48    53    1
    55    52    54    1
    56    52    55    1
    57    52    56    1
    58    51    57    1
    59    46    58    1
    60    30    59    1
    61    31    60    1
    62    33    61    1
    63     1    43    1
@<TRIPOS>SUBSTRUCTURE
     1 DFA          1 RESIDUE
     2 FDE          1 RESIDUE