@<TRIPOS>MOLECULE
DFAFDE
    61    63  2  0  0
SMALL
gas

@<TRIPOS>ATOM
      1 N1         -0.3969    0.6909   -0.7942 n3      1  DFA       -0.3081
      2 C           0.2731    1.9809   -0.5742 c3      1  DFA        0.0429
      3 C1          1.7131    1.9909   -1.0042 cc      1  DFA        0.0727
      4 H           0.2131    2.2509    0.4858 h1      1  DFA        0.0501
      5 H1         -0.2569    2.7609   -1.1342 h1      1  DFA        0.0501
      6 O           2.5331    3.0109   -0.6042 os      1  DFA       -0.3174
      7 C2          2.3131    1.0709   -1.8242 cd      1  DFA       -0.0319
      8 C3          3.7031    2.6809   -1.2442 cc      1  DFA        0.0654
      9 C4          3.6431    1.5409   -1.9942 cd      1  DFA       -0.0327
     10 C5          4.8931    3.6009   -1.1642 c3      1  DFA        0.0418
     11 C6          6.2131    2.9009   -0.9742 cc      1  DFA        0.0654
     12 H2          4.7531    4.3109   -0.3442 hc      1  DFA        0.0409
     13 H3          4.9331    4.2009   -2.0842 hc      1  DFA        0.0409
     14 C7          6.4131    1.8109   -0.1642 cd      1  DFA       -0.0327
     15 C8          7.8131    1.5709   -0.2242 cd      1  DFA       -0.0319
     16 O1          7.3531    3.4009   -1.5542 os      1  DFA       -0.3174
     17 C9          8.3031    2.5409   -1.0642 cc      1  DFA        0.0725
     18 C10         9.7531    2.7709   -1.3942 c3      1  DFA        0.0403
     19 N2         10.5731    1.5609   -1.2442 n3      1  DFA       -0.3248
     20 H4         10.1431    3.5609   -0.7342 h1      1  DFA        0.0498
     21 H5          9.8331    3.1309   -2.4242 h1      1  DFA        0.0498
     22 H6         -0.3969    0.4709   -1.7842 hn      1  DFA        0.1227
     23 H8         10.5531    1.2509   -0.2742 hn      1  DFA        0.1188
     24 H9         11.5431    1.7809   -1.4542 hn      1  DFA        0.1188
     25 H10         1.8631    0.1909   -2.2842 ha      1  DFA        0.0648
     26 H11         4.4231    1.0909   -2.6042 ha      1  DFA        0.0648
     27 H12         5.6831    1.2709    0.4258 ha      1  DFA        0.0648
     28 H13         8.3731    0.8009    0.2958 ha      1  DFA        0.0648
     29 O          -3.2569   -4.4131   -1.0432 os      2  FDE       -0.3212
     30 C          -2.1849   -5.0231   -0.4342 cc      2  FDE        0.0455
     31 C5         -2.0579   -4.7181    0.9018 cd      2  FDE       -0.0364
     32 C6         -3.8009   -3.7081    0.0038 cc      2  FDE        0.0725
     33 C7         -3.1369   -3.8591    1.1958 cd      2  FDE       -0.0322
     34 C8         -5.0679   -2.9131   -0.1832 c3      2  FDE        0.0457
     35 N          -5.1699   -1.7411    0.7258 n3      2  FDE       -0.2919
     36 H          -5.9029   -3.6091   -0.0052 h1      2  FDE        0.0503
     37 H1         -5.1519   -2.5921   -1.2332 h1      2  FDE        0.0503
     38 C9         -6.5299   -1.5741    1.2808 c3      2  FDE        0.0245
     39 C10        -4.5849   -0.4791    0.1948 c3      2  FDE        0.0261
     40 C3         -3.0959   -0.5611   -0.2392 c3      2  FDE        0.0791
     41 H2         -4.6329    0.2879    0.9788 h1      2  FDE        0.0458
     42 H3         -5.1819   -0.1181   -0.6522 h1      2  FDE        0.0458
     43 C1         -2.4249    0.8359   -0.1942 c3      2  FDE        0.0229
     44 H4         -2.9359    1.5419   -0.8632 h1      2  FDE        0.0456
     45 H5         -2.4499    1.2319    0.8278 h1      2  FDE        0.0456
     46 O1         -2.9979   -1.0491   -1.5832 oh      2  FDE       -0.3905
     47 H7         -2.5589   -1.2161    0.4478 h1      2  FDE        0.0628
     48 C4         -6.6179   -0.6551    2.5198 c3      2  FDE        0.0639
     49 H8         -6.9149   -2.5661    1.5868 h1      2  FDE        0.0458
     50 H9         -7.2039   -1.1891    0.5018 h1      2  FDE        0.0458
     51 O2         -7.9599   -0.6151    2.9868 oh      2  FDE       -0.3921
     52 C2         -5.6919   -1.1281    3.6738 c3      2  FDE       -0.0377
     53 H10        -6.3199    0.3659    2.2418 h1      2  FDE        0.0611
     54 H11        -5.9229   -2.1631    3.9628 hc      2  FDE        0.0257
     55 H12        -5.8169   -0.4871    4.5518 hc      2  FDE        0.0257
     56 H13        -4.6389   -1.0861    3.3688 hc      2  FDE        0.0257
     57 H14        -8.1939   -1.5221    3.2768 ho      2  FDE        0.2105
     58 H15        -2.0759   -1.3211   -1.7322 ho      2  FDE        0.2106
     59 H16        -1.5789   -5.6551   -1.0672 h4      2  FDE        0.0902
     60 H17        -1.3099   -5.0801    1.5868 ha      2  FDE        0.0645
     61 H18        -3.3859   -3.4141    2.1528 ha      2  FDE        0.0648
@<TRIPOS>BOND
     1     1     2    1
     2     2     3    1
     3     2     4    1
     4     2     5    1
     5     3     6    1
     6     3     7    2
     7     6     8    1
     8     8     9    2
     9     7     9    1
    10     8    10    1
    11    10    11    1
    12    10    12    1
    13    10    13    1
    14    11    14    2
    15    14    15    1
    16    11    16    1
    17    16    17    1
    18    15    17    2
    19    17    18    1
    20    18    19    1
    21    18    20    1
    22    18    21    1
    23     1    22    1
    24    19    23    1
    25    19    24    1
    26     7    25    1
    27     9    26    1
    28    14    27    1
    29    15    28    1
    30    29    30    1
    31    30    31    2
    32    29    32    1
    33    32    33    2
    34    31    33    1
    35    32    34    1
    36    34    35    1
    37    34    36    1
    38    34    37    1
    39    35    38    1
    40    35    39    1
    41    39    40    1
    42    39    41    1
    43    39    42    1
    44    40    43    1
    45    43    44    1
    46    43    45    1
    47    40    46    1
    48    40    47    1
    49    38    48    1
    50    38    49    1
    51    38    50    1
    52    48    51    1
    53    48    52    1
    54    48    53    1
    55    52    54    1
    56    52    55    1
    57    52    56    1
    58    51    57    1
    59    46    58    1
    60    30    59    1
    61    31    60    1
    62    33    61    1
    63     1    43    1
@<TRIPOS>SUBSTRUCTURE
     1 DFA          1 RESIDUE
     2 FDE          1 RESIDUE
