@<TRIPOS>MOLECULE
DFAFDE-4
    61    63  2  0  0
SMALL
gas

@<TRIPOS>ATOM
      1 N1         -1.8260   -1.8880    1.8000 n3      1  DFA       -0.3081
      2 C          -1.1560   -0.5980    2.0200 c3      1  DFA        0.0429
      3 C1          0.2940   -0.5880    1.5900 cc      1  DFA        0.0727
      4 H          -1.2160   -0.3280    3.0800 h1      1  DFA        0.0501
      5 H1         -1.6860    0.1820    1.4600 h1      1  DFA        0.0501
      6 O           1.1040    0.4320    1.9900 os      1  DFA       -0.3174
      7 C2          0.8840   -1.5080    0.7600 cd      1  DFA       -0.0319
      8 C3          2.2740    0.1020    1.3500 cc      1  DFA        0.0654
      9 C4          2.2140   -1.0380    0.6000 cd      1  DFA       -0.0327
     10 C5          3.4640    1.0220    1.4300 c3      1  DFA        0.0418
     11 C6          4.7840    0.3220    1.6200 cc      1  DFA        0.0654
     12 H2          3.3240    1.7320    2.2500 hc      1  DFA        0.0409
     13 H3          3.5040    1.6220    0.5100 hc      1  DFA        0.0409
     14 C7          4.9840   -0.7680    2.4300 cd      1  DFA       -0.0327
     15 C8          6.3840   -1.0080    2.3700 cd      1  DFA       -0.0319
     16 O1          5.9240    0.8220    1.0400 os      1  DFA       -0.3174
     17 C9          6.8740   -0.0380    1.5300 cc      1  DFA        0.0725
     18 C10         8.3240    0.1920    1.2000 c3      1  DFA        0.0403
     19 N2          9.1440   -1.0180    1.3500 n3      1  DFA       -0.3248
     20 H4          8.7140    0.9820    1.8600 h1      1  DFA        0.0498
     21 H5          8.4040    0.5520    0.1700 h1      1  DFA        0.0498
     22 H6         -2.8060   -1.8180    2.0900 hn      1  DFA        0.1227
     23 H8          9.1240   -1.3280    2.3200 hn      1  DFA        0.1188
     24 H9         10.1140   -0.7980    1.1400 hn      1  DFA        0.1188
     25 H10         0.4340   -2.3880    0.3100 ha      1  DFA        0.0648
     26 H11         2.9940   -1.4880   -0.0100 ha      1  DFA        0.0648
     27 H12         4.2540   -1.3080    3.0200 ha      1  DFA        0.0648
     28 H13         6.9440   -1.7780    2.8900 ha      1  DFA        0.0648
     29 O          -0.4020    1.7950   -2.6730 os      2  FDE       -0.3212
     30 C          -0.0320    1.1260   -3.8160 cc      2  FDE        0.0455
     31 C3         -1.0190    0.3150   -4.3290 cd      2  FDE       -0.0364
     32 C4         -1.6930    1.3550   -2.5040 cc      2  FDE        0.0725
     33 C5         -2.1250    0.4780   -3.4690 cd      2  FDE       -0.0322
     34 C6         -2.5430    1.8850   -1.3780 c3      2  FDE        0.0457
     35 N          -3.5740    0.9210   -0.9100 n3      2  FDE       -0.2919
     36 H          -3.0220    2.8040   -1.7530 h1      2  FDE        0.0503
     37 H1         -1.8990    2.1920   -0.5400 h1      2  FDE        0.0503
     38 C7         -4.8750    1.5700   -0.6430 c3      2  FDE        0.0245
     39 C8         -3.1320    0.0040    0.1760 c3      2  FDE        0.0261
     40 C9         -1.8610   -0.8360   -0.1310 c3      2  FDE        0.0791
     41 H2         -3.9340   -0.7180    0.3750 h1      2  FDE        0.0458
     42 H3         -2.9670    0.5720    1.1000 h1      2  FDE        0.0458
     43 C1         -1.8260   -2.1260    0.7270 c3      2  FDE        0.0229
     44 H5         -0.9250   -2.7050    0.5000 h1      2  FDE        0.0456
     45 H4         -2.6980   -2.7520    0.5020 h1      2  FDE        0.0456
     46 O1         -0.6830   -0.0790    0.1710 oh      2  FDE       -0.3905
     47 H7         -1.8710   -1.1290   -1.1810 h1      2  FDE        0.0628
     48 C10        -6.0770    0.6040   -0.5540 c3      2  FDE        0.0639
     49 H8         -5.0930    2.2840   -1.4610 h1      2  FDE        0.0458
     50 H9         -4.8140    2.1520    0.2880 h1      2  FDE        0.0458
     51 O2         -7.2700    1.3490   -0.3440 oh      2  FDE       -0.3921
     52 C2         -6.2370   -0.2600   -1.8340 c3      2  FDE       -0.0377
     53 H10        -5.9410   -0.0740    0.3000 h1      2  FDE        0.0611
     54 H11        -6.3360    0.3740   -2.7250 hc      2  FDE        0.0257
     55 H12        -7.1250   -0.8940   -1.7590 hc      2  FDE        0.0257
     56 H13        -5.3650   -0.9120   -1.9730 hc      2  FDE        0.0257
     57 H14        -7.4040    1.9130   -1.1360 ho      2  FDE        0.2105
     58 H15         0.0710   -0.5220   -0.2560 ho      2  FDE        0.2106
     59 H16         0.9730    1.3110   -4.1680 h4      2  FDE        0.0902
     60 H17        -0.9700   -0.2940   -5.2150 ha      2  FDE        0.0645
     61 H18        -3.1040    0.0210   -3.5540 ha      2  FDE        0.0648
@<TRIPOS>BOND
     1     1     2    1
     2     2     3    1
     3     2     4    1
     4     2     5    1
     5     3     6    1
     6     3     7    2
     7     6     8    1
     8     8     9    2
     9     7     9    1
    10     8    10    1
    11    10    11    1
    12    10    12    1
    13    10    13    1
    14    11    14    2
    15    14    15    1
    16    11    16    1
    17    16    17    1
    18    15    17    2
    19    17    18    1
    20    18    19    1
    21    18    20    1
    22    18    21    1
    23     1    22    1
    24    19    23    1
    25    19    24    1
    26     7    25    1
    27     9    26    1
    28    14    27    1
    29    15    28    1
    30    29    30    1
    31    30    31    2
    32    29    32    1
    33    32    33    2
    34    31    33    1
    35    32    34    1
    36    34    35    1
    37    34    36    1
    38    34    37    1
    39    35    38    1
    40    35    39    1
    41    39    40    1
    42    39    41    1
    43    39    42    1
    44    40    43    1
    45    43    44    1
    46    43    45    1
    47    40    46    1
    48    40    47    1
    49    38    48    1
    50    38    49    1
    51    38    50    1
    52    48    51    1
    53    48    52    1
    54    48    53    1
    55    52    54    1
    56    52    55    1
    57    52    56    1
    58    51    57    1
    59    46    58    1
    60    30    59    1
    61    31    60    1
    62    33    61    1
    63     1    43    1
@<TRIPOS>SUBSTRUCTURE
     1 DFA          1 RESIDUE
     2 FDE          1 RESIDUE