@<TRIPOS>MOLECULE
DFAFDE2-2
    93    96  3  0  0
SMALL
gas

@<TRIPOS>ATOM
      1 N1          0.2620   -0.7728    0.9142 n3      1  DFA       -0.2918
      2 C           1.0020    0.4972    1.0342 c3      1  DFA        0.0457
      3 C1          2.4620    0.3972    0.6742 cc      1  DFA        0.0730
      4 H           0.9210    0.8572    2.0642 h1      1  DFA        0.0503
      5 H1          0.5510    1.2572    0.3942 h1      1  DFA        0.0503
      6 O           3.3210    1.3872    1.0842 os      1  DFA       -0.3174
      7 C2          3.0220   -0.5428   -0.1558 cd      1  DFA       -0.0319
      8 C3          4.4810    1.0172    0.4442 cc      1  DFA        0.0654
      9 C4          4.3720   -0.1228   -0.3158 cd      1  DFA       -0.0327
     10 C5          5.6810    1.9272    0.4742 c3      1  DFA        0.0418
     11 C6          7.0110    1.2272    0.6542 cc      1  DFA        0.0654
     12 H2          5.5610    2.6572    1.2742 hc      1  DFA        0.0409
     13 H3          5.7020    2.5072   -0.4558 hc      1  DFA        0.0409
     14 C7          7.2420    0.1772    1.5042 cd      1  DFA       -0.0327
     15 C8          8.6420   -0.0328    1.4442 cd      1  DFA       -0.0319
     16 O1          8.1320    1.7272    0.0442 os      1  DFA       -0.3174
     17 C9          9.1010    0.9172    0.5542 cc      1  DFA        0.0725
     18 C10        10.5520    1.1672    0.2242 c3      1  DFA        0.0403
     19 N2         11.3920   -0.0428    0.3542 n3      1  DFA       -0.3248
     20 H4         10.9310    1.9472    0.8742 h1      1  DFA        0.0498
     21 H5         10.6110    1.5372   -0.8158 h1      1  DFA        0.0498
     22 H8         11.3920   -0.3528    1.3242 hn      1  DFA        0.1188
     23 H9         12.3510    0.1972    0.1242 hn      1  DFA        0.1188
     24 H10         2.5310   -1.3828   -0.6358 ha      1  DFA        0.0648
     25 H11         5.1310   -0.5828   -0.9458 ha      1  DFA        0.0648
     26 H12         6.5210   -0.3428    2.1242 ha      1  DFA        0.0648
     27 H13         9.2220   -0.7628    1.9942 ha      1  DFA        0.0648
     28 O          -6.9490   -1.8528    3.8142 os      2  FDE       -0.3212
     29 C          -6.6990   -2.3728    5.0642 cc      2  FDE        0.0455
     30 C5         -5.3590   -2.4128    5.3742 cd      2  FDE       -0.0364
     31 C6         -5.6890   -1.5728    3.3642 cc      2  FDE        0.0725
     32 C7         -4.6890   -1.8728    4.2542 cd      2  FDE       -0.0322
     33 C8         -5.4790   -0.9028    2.0342 c3      2  FDE        0.0457
     34 N          -4.2180   -1.3128    1.3442 n3      2  FDE       -0.2919
     35 H          -5.4580    0.1772    2.2342 h1      2  FDE        0.0503
     36 H1         -6.3380   -1.0828    1.3842 h1      2  FDE        0.0503
     37 C9         -3.5990   -0.1528    0.6542 c3      2  FDE        0.0261
     38 C10        -4.3380   -2.5228    0.4842 c3      2  FDE        0.0245
     39 C3         -4.9280   -3.7828    1.1742 c3      2  FDE        0.0639
     40 H2         -3.3380   -2.7928    0.1242 h1      2  FDE        0.0458
     41 H3         -4.9490   -2.2928   -0.3958 h1      2  FDE        0.0458
     42 C1         -4.4680   -5.0728    0.4542 c3      2  FDE       -0.0377
     43 H4         -4.8090   -5.0828   -0.5858 hc      2  FDE        0.0257
     44 H5         -4.8780   -5.9628    0.9542 hc      2  FDE        0.0257
     45 H6         -3.3780   -5.1528    0.4642 hc      2  FDE        0.0257
     46 O1         -6.3480   -3.7428    1.1442 oh      2  FDE       -0.3921
     47 H7         -4.5590   -3.8328    2.2042 h1      2  FDE        0.0611
     48 C4         -2.1390   -0.3728    0.1542 c3      2  FDE        0.0794
     49 H8         -3.5790    0.7072    1.3442 h1      2  FDE        0.0458
     50 H9         -4.2180    0.1272   -0.1958 h1      2  FDE        0.0458
     51 O2         -1.7380    0.8172   -0.5158 oh      2  FDE       -0.3905
     52 C2         -1.1690   -0.7228    1.3142 c3      2  FDE        0.0261
     53 H10        -2.1280   -1.1928   -0.5658 h1      2  FDE        0.0628
     54 H11        -1.2980   -0.0228    2.1442 h1      2  FDE        0.0458
     55 H12        -1.4480   -1.7128    1.6842 h1      2  FDE        0.0458
     56 H14        -1.7380    1.5472    0.1342 ho      2  FDE        0.2106
     57 H15        -6.6780   -4.3928    1.7942 ho      2  FDE        0.2105
     58 H16        -7.5590   -2.6728    5.6342 h4      2  FDE        0.0902
     59 H17        -4.9180   -2.7728    6.3042 ha      2  FDE        0.0645
     60 H18        -3.6190   -1.7228    4.1342 ha      2  FDE        0.0648
     61 O          -2.5770    0.5322   -4.9968 os      3  FDE       -0.3212
     62 C          -3.8660    0.2172   -4.6338 cc      3  FDE        0.0455
     63 C5         -4.2260    0.6912   -3.3928 cd      3  FDE       -0.0364
     64 C6         -2.1520    1.2432   -3.8998 cc      3  FDE        0.0725
     65 C7         -3.0960    1.3832   -2.9128 cd      3  FDE       -0.0322
     66 C8         -0.7770    1.8602   -3.8718 c3      3  FDE        0.0457
     67 N          -0.2140    1.9902   -2.5018 n3      3  FDE       -0.2919
     68 H          -0.8700    2.8522   -4.3418 h1      3  FDE        0.0503
     69 H1         -0.0970    1.2772   -4.5118 h1      3  FDE        0.0503
     70 C9          0.4760    3.2802   -2.2948 c3      3  FDE        0.0245
     71 C10         0.5670    0.8142   -2.0288 c3      3  FDE        0.0261
     72 C3         -0.1820   -0.5458   -2.0608 c3      3  FDE        0.0794
     73 H2          0.8520    0.9802   -0.9818 h1      3  FDE        0.0458
     74 H3          1.4940    0.7232   -2.6088 h1      3  FDE        0.0458
     75 C1          0.4280   -1.5428   -1.0428 c3      3  FDE        0.0261
     76 H4          1.4880   -1.7328   -1.2628 h1      3  FDE        0.0458
     77 H5         -0.1100   -2.4968   -1.0798 h1      3  FDE        0.0458
     78 O1         -0.0820   -1.1358   -3.3628 oh      3  FDE       -0.3905
     79 H7         -1.2270   -0.3858   -1.7918 h1      3  FDE        0.0628
     80 C4          0.7220    3.6562   -0.8168 c3      3  FDE        0.0639
     81 H8         -0.1380    4.0892   -2.7358 h1      3  FDE        0.0458
     82 H9          1.4390    3.2762   -2.8278 h1      3  FDE        0.0458
     83 O2          1.3440    4.9332   -0.7478 oh      3  FDE       -0.3921
     84 C2         -0.5910    3.6862    0.0122 c3      3  FDE       -0.0377
     85 H10         1.3970    2.9202   -0.3578 h1      3  FDE        0.0611
     86 H11        -1.3180    4.3802   -0.4308 hc      3  FDE        0.0257
     87 H12        -0.3890    4.0052    1.0392 hc      3  FDE        0.0257
     88 H13        -1.0490    2.6892    0.0492 hc      3  FDE        0.0257
     89 H14         0.7100    5.5852   -1.1158 ho      3  FDE        0.2105
     90 H15        -0.7510   -1.8388   -3.4218 ho      3  FDE        0.2106
     91 H16        -4.4320   -0.3578   -5.3538 h4      3  FDE        0.0902
     92 H17        -5.1780    0.5812   -2.9028 ha      3  FDE        0.0645
     93 H18        -2.9940    1.9102   -1.9698 ha      3  FDE        0.0648
@<TRIPOS>BOND
     1     1     2    1
     2     2     3    1
     3     2     4    1
     4     2     5    1
     5     3     6    1
     6     3     7    2
     7     6     8    1
     8     8     9    2
     9     7     9    1
    10     8    10    1
    11    10    11    1
    12    10    12    1
    13    10    13    1
    14    11    14    2
    15    14    15    1
    16    11    16    1
    17    16    17    1
    18    15    17    2
    19    17    18    1
    20    18    19    1
    21    18    20    1
    22    18    21    1
    23    19    22    1
    24    19    23    1
    25     7    24    1
    26     9    25    1
    27    14    26    1
    28    15    27    1
    29    28    29    1
    30    29    30    2
    31    28    31    1
    32    31    32    2
    33    30    32    1
    34    31    33    1
    35    33    34    1
    36    33    35    1
    37    33    36    1
    38    34    37    1
    39    34    38    1
    40    38    39    1
    41    38    40    1
    42    38    41    1
    43    39    42    1
    44    42    43    1
    45    42    44    1
    46    42    45    1
    47    39    46    1
    48    39    47    1
    49    37    48    1
    50    37    49    1
    51    37    50    1
    52    48    51    1
    53    48    52    1
    54    48    53    1
    55    52    54    1
    56    52    55    1
    57    51    56    1
    58    46    57    1
    59    29    58    1
    60    30    59    1
    61    32    60    1
    62     1    52    1
    63    61    62    1
    64    62    63    2
    65    61    64    1
    66    64    65    2
    67    63    65    1
    68    64    66    1
    69    66    67    1
    70    66    68    1
    71    66    69    1
    72    67    70    1
    73    67    71    1
    74    71    72    1
    75    71    73    1
    76    71    74    1
    77    72    75    1
    78    75    76    1
    79    75    77    1
    80    72    78    1
    81    72    79    1
    82    70    80    1
    83    70    81    1
    84    70    82    1
    85    80    83    1
    86    80    84    1
    87    80    85    1
    88    84    86    1
    89    84    87    1
    90    84    88    1
    91    83    89    1
    92    78    90    1
    93    62    91    1
    94    63    92    1
    95    65    93    1
    96     1    75    1
@<TRIPOS>SUBSTRUCTURE
     1 DFA          1 RESIDUE
     2 FDE          1 RESIDUE
     3 FDE          1 RESIDUE