@<TRIPOS>MOLECULE
*****
    53    54  1  0  0
SMALL
gas

@<TRIPOS>ATOM
      1 C          -2.8345    0.2148   -1.2101 ca      1  DGE       -0.0315
      2 C5         -3.7415   -0.1812   -0.2261 ca      1  DGE        0.0750
      3 C6         -3.3665   -1.1862    0.6819 ca      1  DGE       -0.0315
      4 C7         -2.1065   -1.7892    0.5939 ca      1  DGE       -0.0556
      5 C8         -1.5785   -0.3852   -1.3031 ca      1  DGE       -0.0556
      6 C9         -1.1835   -1.4042   -0.4071 ca      1  DGE       -0.0378
      7 C10         0.2125   -2.0562   -0.5741 c3      1  DGE        0.0146
      8 C11         1.3635   -1.0402   -0.3861 ca      1  DGE       -0.0378
      9 C12         1.1505    0.2708    0.1019 ca      1  DGE       -0.0556
     10 C13         2.2185    1.1498    0.2969 ca      1  DGE       -0.0315
     11 C14         3.5285    0.7578    0.0179 ca      1  DGE        0.0750
     12 C15         3.7595   -0.5382   -0.4741 ca      1  DGE       -0.0315
     13 C16         2.6955   -1.4222   -0.6661 ca      1  DGE       -0.0556
     14 O           4.5305    1.6418    0.2579 os      1  DGE       -0.3435
     15 C17         5.8805    1.3968    0.0979 c3      1  DGE        0.0790
     16 C3          6.6835    2.6048    0.5839 c3      1  DGE        0.0750
     17 H           6.1045    1.1908   -0.9731 h1      1  DGE        0.0600
     18 H1          6.1655    0.5118    0.7099 h1      1  DGE        0.0600
     19 C1          8.1855    2.3358    0.4799 c3      1  DGE       -0.0366
     20 H2          8.4605    1.4488    1.0909 hc      1  DGE        0.0258
     21 H3          8.7535    3.2108    0.8619 hc      1  DGE        0.0258
     22 H4          8.4775    2.1518   -0.5761 hc      1  DGE        0.0258
     23 O1          6.3445    3.7298   -0.1851 oh      1  DGE       -0.3910
     24 H5          6.4175    2.7788    1.6539 h1      1  DGE        0.0622
     25 O2         -4.9585    0.4208   -0.2001 os      1  DGE       -0.3435
     26 C18        -6.0045    0.1028    0.6429 c3      1  DGE        0.0790
     27 C4         -7.2185    0.9718    0.2989 c3      1  DGE        0.0750
     28 H6         -5.7055    0.2698    1.7019 h1      1  DGE        0.0600
     29 H7         -6.2735   -0.9672    0.5009 h1      1  DGE        0.0600
     30 O3         -6.9185    2.3268    0.5099 oh      1  DGE       -0.3910
     31 C2         -8.4235    0.5908    1.1579 c3      1  DGE       -0.0366
     32 H8         -7.5075    0.8008   -0.7661 h1      1  DGE        0.0622
     33 H9         -8.6925   -0.4742    0.9909 hc      1  DGE        0.0258
     34 H10        -9.2965    1.2198    0.8799 hc      1  DGE        0.0258
     35 H11        -8.1995    0.7438    2.2349 hc      1  DGE        0.0258
     36 H12        -4.0435   -1.5162    1.4589 ha      1  DGE        0.0651
     37 H13        -3.1085    0.9888   -1.9161 ha      1  DGE        0.0651
     38 H14        -0.9105   -0.0472   -2.0841 ha      1  DGE        0.0627
     39 H15        -1.8805   -2.5582    1.3169 ha      1  DGE        0.0627
     40 H16         0.1665    0.6308    0.3619 ha      1  DGE        0.0627
     41 H17         2.0255    2.1428    0.6849 ha      1  DGE        0.0651
     42 H18         4.7605   -0.8792   -0.7021 ha      1  DGE        0.0651
     43 H19         2.9275   -2.4122   -1.0331 ha      1  DGE        0.0627
     44 H20        -6.4645    2.6548   -0.3101 ho      1  DGE        0.2106
     45 H21         6.5935    4.5278    0.3499 ho      1  DGE        0.2106
     46 C19         0.2535   -2.6802   -1.9941 c3      1  DGE       -0.0517
     47 H22         0.1695   -1.9112   -2.7881 hc      1  DGE        0.0243
     48 H23        -0.5825   -3.4022   -2.1191 hc      1  DGE        0.0243
     49 H24         1.1935   -3.2402   -2.1771 hc      1  DGE        0.0243
     50 C20         0.4455   -3.2022    0.4429 c3      1  DGE       -0.0517
     51 H25         0.4385   -2.8082    1.4829 hc      1  DGE        0.0243
     52 H26         1.4265   -3.6972    0.2819 hc      1  DGE        0.0243
     53 H27        -0.3335   -3.9892    0.3449 hc      1  DGE        0.0243
@<TRIPOS>BOND
     1     1     2   ar
     2     2     3   ar
     3     3     4   ar
     4     1     5   ar
     5     5     6   ar
     6     4     6   ar
     7     6     7    1
     8     7     8    1
     9     8     9   ar
    10     9    10   ar
    11    10    11   ar
    12    11    12   ar
    13    12    13   ar
    14     8    13   ar
    15    11    14    1
    16    14    15    1
    17    15    16    1
    18    15    17    1
    19    15    18    1
    20    16    19    1
    21    19    20    1
    22    19    21    1
    23    19    22    1
    24    16    23    1
    25    16    24    1
    26     2    25    1
    27    25    26    1
    28    26    27    1
    29    26    28    1
    30    26    29    1
    31    27    30    1
    32    27    31    1
    33    27    32    1
    34    31    33    1
    35    31    34    1
    36    31    35    1
    37     3    36    1
    38     1    37    1
    39     5    38    1
    40     4    39    1
    41     9    40    1
    42    10    41    1
    43    12    42    1
    44    13    43    1
    45    30    44    1
    46    23    45    1
    47     7    46    1
    48    46    47    1
    49    46    48    1
    50    46    49    1
    51     7    50    1
    52    50    51    1
    53    50    52    1
    54    50    53    1
@<TRIPOS>SUBSTRUCTURE
     1 DGE          1 RESIDUE
