@<TRIPOS>MOLECULE
DGEC
    51    53  1  0  0
SMALL
gas

@<TRIPOS>ATOM
      1 C          -2.5390    0.3008   -1.3459 ca      1  DGE       -0.0315
      2 C5         -3.4490   -0.0592   -0.3459 ca      1  DGE        0.0750
      3 C6         -3.0790   -1.0192    0.6041 ca      1  DGE       -0.0315
      4 C7         -1.8190   -1.6292    0.5441 ca      1  DGE       -0.0556
      5 C8         -1.2690   -0.3092   -1.4059 ca      1  DGE       -0.0556
      6 C9         -0.8890   -1.2892   -0.4659 ca      1  DGE       -0.0378
      7 C10         0.5110   -1.9492   -0.5759 c3      1  DGE        0.0146
      8 C11         1.6510   -0.9292   -0.3659 ca      1  DGE       -0.0378
      9 C12         1.4210    0.3108    0.2741 ca      1  DGE       -0.0556
     10 C13         2.4810    1.2108    0.5041 ca      1  DGE       -0.0315
     11 C14         3.7910    0.8808    0.1241 ca      1  DGE        0.0750
     12 C15         4.0310   -0.3592   -0.4959 ca      1  DGE       -0.0315
     13 C16         2.9710   -1.2492   -0.7259 ca      1  DGE       -0.0556
     14 O           4.7910    1.7808    0.4041 os      1  DGE       -0.3433
     15 C17         6.1710    1.5708    0.0341 c3      1  DGE        0.0818
     16 C3          7.0010    2.7808    0.5241 cx      1  DGE        0.1047
     17 H           6.2710    1.4708   -1.0559 h1      1  DGE        0.0601
     18 H1          6.5410    0.6608    0.5141 h1      1  DGE        0.0601
     19 C1          8.5110    2.4708    0.5241 cx      1  DGE        0.0757
     20 H2          8.7310    1.6108    1.1741 h1      1  DGE        0.0595
     21 H3          9.0810    3.3308    0.8841 h1      1  DGE        0.0595
     22 O1          6.7610    3.9108   -0.3159 op      1  DGE       -0.3706
     23 H5          6.6910    3.0108    1.5541 h1      1  DGE        0.0653
     24 O2         -4.6890    0.5608   -0.3459 os      1  DGE       -0.3435
     25 C18        -5.7090    0.2808    0.6341 c3      1  DGE        0.0790
     26 C4         -6.9590    1.1208    0.2941 c3      1  DGE        0.0750
     27 H6         -5.3590    0.5208    1.6441 h1      1  DGE        0.0600
     28 H7         -5.9690   -0.7892    0.6041 h1      1  DGE        0.0600
     29 O3         -6.6790    2.5008    0.5141 oh      1  DGE       -0.3910
     30 C2         -8.1690    0.7008    1.1541 c3      1  DGE       -0.0366
     31 H8         -7.2090    0.9508   -0.7659 h1      1  DGE        0.0622
     32 H9         -8.4190   -0.3492    0.9941 hc      1  DGE        0.0258
     33 H10        -9.0490    1.3008    0.8941 hc      1  DGE        0.0258
     34 H11        -7.9590    0.8408    2.2241 hc      1  DGE        0.0258
     35 H12        -3.7690   -1.3192    1.3941 ha      1  DGE        0.0651
     36 H13        -2.8090    1.0508   -2.0859 ha      1  DGE        0.0651
     37 H14        -0.5790    0.0008   -2.1859 ha      1  DGE        0.0627
     38 H15        -1.5790   -2.3692    1.3041 ha      1  DGE        0.0627
     39 H16         0.4310    0.6008    0.6041 ha      1  DGE        0.0627
     40 H17         2.2910    2.1608    0.9941 ha      1  DGE        0.0651
     41 H18         5.0410   -0.6492   -0.7859 ha      1  DGE        0.0651
     42 H19         3.2010   -2.2092   -1.1859 ha      1  DGE        0.0627
     43 H20        -5.8790    2.7108   -0.0059 ho      1  DGE        0.2106
     44 C19         0.6010   -2.5892   -1.9959 c3      1  DGE       -0.0517
     45 H22         0.6610   -1.8292   -2.7759 hc      1  DGE        0.0243
     46 H23        -0.2890   -3.2092   -2.1959 hc      1  DGE        0.0243
     47 H24         1.4710   -3.2492   -2.0959 hc      1  DGE        0.0243
     48 C20         0.7110   -3.0892    0.4541 c3      1  DGE       -0.0517
     49 H25         0.6810   -2.7092    1.4841 hc      1  DGE        0.0243
     50 H26         1.6810   -3.5792    0.3141 hc      1  DGE        0.0243
     51 H27        -0.0590   -3.8692    0.3541 hc      1  DGE        0.0243
@<TRIPOS>BOND
     1     1     2   ar
     2     2     3   ar
     3     3     4   ar
     4     1     5   ar
     5     5     6   ar
     6     4     6   ar
     7     6     7    1
     8     7     8    1
     9     8     9   ar
    10     9    10   ar
    11    10    11   ar
    12    11    12   ar
    13    12    13   ar
    14     8    13   ar
    15    11    14    1
    16    14    15    1
    17    15    16    1
    18    15    17    1
    19    15    18    1
    20    16    19    1
    21    19    20    1
    22    19    21    1
    23    16    22    1
    24    16    23    1
    25     2    24    1
    26    24    25    1
    27    25    26    1
    28    25    27    1
    29    25    28    1
    30    26    29    1
    31    26    30    1
    32    26    31    1
    33    30    32    1
    34    30    33    1
    35    30    34    1
    36     3    35    1
    37     1    36    1
    38     5    37    1
    39     4    38    1
    40     9    39    1
    41    10    40    1
    42    12    41    1
    43    13    42    1
    44    29    43    1
    45     7    44    1
    46    44    45    1
    47    44    46    1
    48    44    47    1
    49     7    48    1
    50    48    49    1
    51    48    50    1
    52    48    51    1
    53    19    22    1
@<TRIPOS>SUBSTRUCTURE
     1 DGE          1 RESIDUE
