@<TRIPOS>MOLECULE
DGEC-1
    51    53  1  0  0
SMALL
gas

@<TRIPOS>ATOM
      1 C          -3.1231    0.2347   -1.2959 ca      1  DGE       -0.0315
      2 C5         -4.0341   -0.1253   -0.2949 ca      1  DGE        0.0750
      3 C6         -3.6631   -1.0853    0.6541 ca      1  DGE       -0.0315
      4 C7         -2.4041   -1.6953    0.5951 ca      1  DGE       -0.0556
      5 C8         -1.8531   -0.3753   -1.3549 ca      1  DGE       -0.0556
      6 C9         -1.4741   -1.3553   -0.4149 ca      1  DGE       -0.0378
      7 C10        -0.0731   -2.0153   -0.5249 c3      1  DGE        0.0146
      8 C11         1.0669   -0.9953   -0.3159 ca      1  DGE       -0.0378
      9 C12         0.8369    0.2447    0.3251 ca      1  DGE       -0.0556
     10 C13         1.8969    1.1447    0.5541 ca      1  DGE       -0.0315
     11 C14         3.2069    0.8147    0.1741 ca      1  DGE        0.0750
     12 C15         3.4459   -0.4253   -0.4459 ca      1  DGE       -0.0315
     13 C16         2.3859   -1.3153   -0.6749 ca      1  DGE       -0.0556
     14 O           4.2069    1.7147    0.4551 os      1  DGE       -0.3435
     15 C17         5.5869    1.5047    0.0851 c3      1  DGE        0.0790
     16 C3          6.4169    2.7147    0.5751 c3      1  DGE        0.0750
     17 H           5.6859    1.4047   -1.0059 h1      1  DGE        0.0600
     18 H1          5.9569    0.5947    0.5651 h1      1  DGE        0.0600
     19 C1          7.9259    2.4047    0.5751 c3      1  DGE       -0.0366
     20 H2          8.1459    1.5447    1.2241 hc      1  DGE        0.0258
     21 H3          8.4959    3.2647    0.9341 hc      1  DGE        0.0258
     22 H4          8.2669    2.1547   -0.4349 hc      1  DGE        0.0258
     23 O1          6.1759    3.8447   -0.2659 oh      1  DGE       -0.3910
     24 H5          6.1059    2.9447    1.6051 h1      1  DGE        0.0622
     25 O2         -5.2741    0.4947   -0.2949 os      1  DGE       -0.3433
     26 C18        -6.2931    0.2147    0.6841 c3      1  DGE        0.0818
     27 C4         -7.5431    1.0547    0.3441 cx      1  DGE        0.1047
     28 H6         -5.9441    0.4547    1.6941 h1      1  DGE        0.0601
     29 H7         -6.5531   -0.8553    0.6541 h1      1  DGE        0.0601
     30 O3         -7.2631    2.4347    0.5651 op      1  DGE       -0.3706
     31 C2         -8.7541    0.6347    1.2041 cx      1  DGE        0.0757
     32 H8         -7.7931    0.8847   -0.7159 h1      1  DGE        0.0653
     33 H9         -9.0041   -0.4153    1.0441 h1      1  DGE        0.0595
     34 H10        -9.6331    1.2347    0.9451 h1      1  DGE        0.0595
     35 H12        -4.3541   -1.3853    1.4441 ha      1  DGE        0.0651
     36 H13        -3.3931    0.9847   -2.0349 ha      1  DGE        0.0651
     37 H14        -1.1631   -0.0653   -2.1349 ha      1  DGE        0.0627
     38 H15        -2.1631   -2.4353    1.3551 ha      1  DGE        0.0627
     39 H16        -0.1531    0.5347    0.6541 ha      1  DGE        0.0627
     40 H17         1.7059    2.0947    1.0441 ha      1  DGE        0.0651
     41 H18         4.4569   -0.7153   -0.7359 ha      1  DGE        0.0651
     42 H19         2.6159   -2.2753   -1.1349 ha      1  DGE        0.0627
     43 H21         6.5369    4.6347    0.1841 ho      1  DGE        0.2106
     44 C19         0.0169   -2.6553   -1.9459 c3      1  DGE       -0.0517
     45 H22         0.0759   -1.8953   -2.7249 hc      1  DGE        0.0243
     46 H23        -0.8741   -3.2753   -2.1459 hc      1  DGE        0.0243
     47 H24         0.8859   -3.3153   -2.0459 hc      1  DGE        0.0243
     48 C20         0.1269   -3.1553    0.5041 c3      1  DGE       -0.0517
     49 H25         0.0969   -2.7753    1.5341 hc      1  DGE        0.0243
     50 H26         1.0969   -3.6453    0.3641 hc      1  DGE        0.0243
     51 H27        -0.6431   -3.9353    0.4051 hc      1  DGE        0.0243
@<TRIPOS>BOND
     1     1     2   ar
     2     2     3   ar
     3     3     4   ar
     4     1     5   ar
     5     5     6   ar
     6     6     4   ar
     7     6     7    1
     8     7     8    1
     9     8     9   ar
    10     9    10   ar
    11    10    11   ar
    12    11    12   ar
    13    12    13   ar
    14     8    13   ar
    15    11    14    1
    16    14    15    1
    17    15    16    1
    18    15    17    1
    19    15    18    1
    20    16    19    1
    21    19    20    1
    22    19    21    1
    23    19    22    1
    24    16    23    1
    25    16    24    1
    26     2    25    1
    27    25    26    1
    28    26    27    1
    29    26    28    1
    30    26    29    1
    31    27    30    1
    32    27    31    1
    33    27    32    1
    34    31    33    1
    35    31    34    1
    36     3    35    1
    37     1    36    1
    38     5    37    1
    39     4    38    1
    40     9    39    1
    41    10    40    1
    42    12    41    1
    43    13    42    1
    44    23    43    1
    45     7    44    1
    46    44    45    1
    47    44    46    1
    48    44    47    1
    49     7    48    1
    50    48    49    1
    51    48    50    1
    52    48    51    1
    53    30    31    1
@<TRIPOS>SUBSTRUCTURE
     1 DGE          1 RESIDUE