@<TRIPOS>MOLECULE
DGEC
    51    53  1  0  0
SMALL
gas

@<TRIPOS>ATOM
      1 C          -2.5392    0.3006   -1.3459 ca      1  DGE       -0.0315
      2 C5         -3.4492   -0.0594   -0.3459 ca      1  DGE        0.0750
      3 C6         -3.0792   -1.0194    0.6041 ca      1  DGE       -0.0315
      4 C7         -1.8192   -1.6294    0.5441 ca      1  DGE       -0.0556
      5 C8         -1.2692   -0.3094   -1.4059 ca      1  DGE       -0.0556
      6 C9         -0.8892   -1.2894   -0.4659 ca      1  DGE       -0.0378
      7 C10         0.5108   -1.9494   -0.5759 c3      1  DGE        0.0146
      8 C11         1.6508   -0.9294   -0.3659 ca      1  DGE       -0.0378
      9 C12         1.4208    0.3106    0.2741 ca      1  DGE       -0.0556
     10 C13         2.4808    1.2106    0.5041 ca      1  DGE       -0.0315
     11 C14         3.7908    0.8806    0.1241 ca      1  DGE        0.0750
     12 C15         4.0308   -0.3594   -0.4959 ca      1  DGE       -0.0315
     13 C16         2.9708   -1.2494   -0.7259 ca      1  DGE       -0.0556
     14 O           4.7908    1.7806    0.4041 os      1  DGE       -0.3433
     15 C17         6.1708    1.5706    0.0341 c3      1  DGE        0.0818
     16 C3          7.0008    2.7806    0.5241 cx      1  DGE        0.1047
     17 H           6.2708    1.4706   -1.0559 h1      1  DGE        0.0601
     18 H1          6.5408    0.6606    0.5141 h1      1  DGE        0.0601
     19 C1          8.5108    2.4706    0.5241 cx      1  DGE        0.0757
     20 H2          8.7308    1.6106    1.1741 h1      1  DGE        0.0595
     21 H3          9.0808    3.3306    0.8841 h1      1  DGE        0.0595
     22 O1          6.7608    3.9106   -0.3159 op      1  DGE       -0.3706
     23 H5          6.6908    3.0206    1.5541 h1      1  DGE        0.0653
     24 O2         -4.6892    0.5606   -0.3459 os      1  DGE       -0.3435
     25 C18        -5.7092    0.2806    0.6341 c3      1  DGE        0.0790
     26 C4         -6.9592    1.1206    0.2941 c3      1  DGE        0.0750
     27 H6         -5.3592    0.5206    1.6441 h1      1  DGE        0.0600
     28 H7         -5.9692   -0.7894    0.6041 h1      1  DGE        0.0600
     29 O3         -6.6792    2.5006    0.5141 oh      1  DGE       -0.3910
     30 C2         -8.1692    0.7006    1.1541 c3      1  DGE       -0.0366
     31 H8         -7.2092    0.9506   -0.7659 h1      1  DGE        0.0622
     32 H9         -8.4192   -0.3494    0.9841 hc      1  DGE        0.0258
     33 H10        -9.0492    1.3006    0.8941 hc      1  DGE        0.0258
     34 H11        -7.9592    0.8406    2.2241 hc      1  DGE        0.0258
     35 H12        -3.7692   -1.3194    1.3941 ha      1  DGE        0.0651
     36 H13        -2.8092    1.0506   -2.0859 ha      1  DGE        0.0651
     37 H14        -0.5792    0.0006   -2.1859 ha      1  DGE        0.0627
     38 H15        -1.5792   -2.3694    1.3041 ha      1  DGE        0.0627
     39 H16         0.4308    0.6006    0.6141 ha      1  DGE        0.0627
     40 H17         2.2908    2.1606    0.9941 ha      1  DGE        0.0651
     41 H18         5.0408   -0.6494   -0.7859 ha      1  DGE        0.0651
     42 H19         3.2008   -2.2094   -1.1859 ha      1  DGE        0.0627
     43 H20        -5.8792    2.7106   -0.0059 ho      1  DGE        0.2106
     44 C19         0.6008   -2.5894   -1.9959 c3      1  DGE       -0.0517
     45 H22         0.6708   -1.8294   -2.7759 hc      1  DGE        0.0243
     46 H23        -0.2892   -3.2094   -2.1959 hc      1  DGE        0.0243
     47 H24         1.4708   -3.2494   -2.0959 hc      1  DGE        0.0243
     48 C20         0.7108   -3.0894    0.4541 c3      1  DGE       -0.0517
     49 H25         0.6808   -2.7094    1.4841 hc      1  DGE        0.0243
     50 H26         1.6808   -3.5794    0.3141 hc      1  DGE        0.0243
     51 H27        -0.0592   -3.8694    0.3541 hc      1  DGE        0.0243
@<TRIPOS>BOND
     1     1     2   ar
     2     2     3   ar
     3     3     4   ar
     4     1     5   ar
     5     5     6   ar
     6     6     4   ar
     7     6     7    1
     8     7     8    1
     9     8     9   ar
    10     9    10   ar
    11    10    11   ar
    12    11    12   ar
    13    12    13   ar
    14     8    13   ar
    15    11    14    1
    16    14    15    1
    17    15    16    1
    18    15    17    1
    19    15    18    1
    20    16    19    1
    21    19    20    1
    22    19    21    1
    23    16    22    1
    24    16    23    1
    25     2    24    1
    26    24    25    1
    27    25    26    1
    28    25    27    1
    29    25    28    1
    30    26    29    1
    31    26    30    1
    32    26    31    1
    33    30    32    1
    34    30    33    1
    35    30    34    1
    36     3    35    1
    37     1    36    1
    38     5    37    1
    39     4    38    1
    40     9    39    1
    41    10    40    1
    42    12    41    1
    43    13    42    1
    44    29    43    1
    45     7    44    1
    46    44    45    1
    47    44    46    1
    48    44    47    1
    49     7    48    1
    50    48    49    1
    51    48    50    1
    52    48    51    1
    53    19    22    1
@<TRIPOS>SUBSTRUCTURE
     1 DGE          1 RESIDUE