@<TRIPOS>MOLECULE
DGEC-1
    51    53  1  0  0
SMALL
gas

@<TRIPOS>ATOM
      1 C          -3.1237    0.2341   -1.2959 ca      1  DGE       -0.0315
      2 C5         -4.0337   -0.1259   -0.2949 ca      1  DGE        0.0750
      3 C6         -3.6637   -1.0849    0.6541 ca      1  DGE       -0.0315
      4 C7         -2.4037   -1.6959    0.5951 ca      1  DGE       -0.0556
      5 C8         -1.8537   -0.3759   -1.3549 ca      1  DGE       -0.0556
      6 C9         -1.4737   -1.3549   -0.4149 ca      1  DGE       -0.0378
      7 C10        -0.0737   -2.0149   -0.5249 c3      1  DGE        0.0146
      8 C11         1.0663   -0.9959   -0.3159 ca      1  DGE       -0.0378
      9 C12         0.8363    0.2441    0.3251 ca      1  DGE       -0.0556
     10 C13         1.8963    1.1451    0.5541 ca      1  DGE       -0.0315
     11 C14         3.2063    0.8151    0.1741 ca      1  DGE        0.0750
     12 C15         3.4463   -0.4249   -0.4459 ca      1  DGE       -0.0315
     13 C16         2.3863   -1.3149   -0.6749 ca      1  DGE       -0.0556
     14 O           4.2063    1.7141    0.4551 os      1  DGE       -0.3435
     15 C17         5.5863    1.5041    0.0851 c3      1  DGE        0.0790
     16 C3          6.4163    2.7151    0.5751 c3      1  DGE        0.0750
     17 H           5.6863    1.4051   -1.0059 h1      1  DGE        0.0600
     18 H1          5.9563    0.5951    0.5651 h1      1  DGE        0.0600
     19 C1          7.9263    2.4051    0.5751 c3      1  DGE       -0.0366
     20 H2          8.1463    1.5441    1.2241 hc      1  DGE        0.0258
     21 H3          8.4963    3.2641    0.9341 hc      1  DGE        0.0258
     22 H4          8.2663    2.1551   -0.4349 hc      1  DGE        0.0258
     23 O1          6.1763    3.8451   -0.2659 oh      1  DGE       -0.3910
     24 H5          6.1063    2.9541    1.6051 h1      1  DGE        0.0622
     25 O2         -5.2737    0.4941   -0.2949 os      1  DGE       -0.3433
     26 C18        -6.2937    0.2141    0.6841 c3      1  DGE        0.0818
     27 C4         -7.5437    1.0541    0.3441 cx      1  DGE        0.1047
     28 H6         -5.9437    0.4551    1.6941 h1      1  DGE        0.0601
     29 H7         -6.5537   -0.8559    0.6541 h1      1  DGE        0.0601
     30 O3         -7.2637    2.4341    0.5651 op      1  DGE       -0.3706
     31 C2         -8.7537    0.6341    1.2041 cx      1  DGE        0.0757
     32 H8         -7.7937    0.8841   -0.7159 h1      1  DGE        0.0653
     33 H9         -9.0037   -0.4149    1.0341 h1      1  DGE        0.0595
     34 H10        -9.6337    1.2341    0.9451 h1      1  DGE        0.0595
     35 H12        -4.3537   -1.3849    1.4441 ha      1  DGE        0.0651
     36 H13        -3.3937    0.9851   -2.0349 ha      1  DGE        0.0651
     37 H14        -1.1637   -0.0659   -2.1349 ha      1  DGE        0.0627
     38 H15        -2.1637   -2.4359    1.3551 ha      1  DGE        0.0627
     39 H16        -0.1537    0.5341    0.6641 ha      1  DGE        0.0627
     40 H17         1.7063    2.0951    1.0441 ha      1  DGE        0.0651
     41 H18         4.4563   -0.7159   -0.7359 ha      1  DGE        0.0651
     42 H19         2.6163   -2.2759   -1.1349 ha      1  DGE        0.0627
     43 H21         6.5363    4.6351    0.1841 ho      1  DGE        0.2106
     44 C19         0.0163   -2.6549   -1.9459 c3      1  DGE       -0.0517
     45 H22         0.0863   -1.8949   -2.7249 hc      1  DGE        0.0243
     46 H23        -0.8737   -3.2759   -2.1459 hc      1  DGE        0.0243
     47 H24         0.8863   -3.3159   -2.0459 hc      1  DGE        0.0243
     48 C20         0.1263   -3.1549    0.5041 c3      1  DGE       -0.0517
     49 H25         0.0963   -2.7759    1.5341 hc      1  DGE        0.0243
     50 H26         1.0963   -3.6459    0.3641 hc      1  DGE        0.0243
     51 H27        -0.6437   -3.9359    0.4051 hc      1  DGE        0.0243
@<TRIPOS>BOND
     1     1     2   ar
     2     2     3   ar
     3     3     4   ar
     4     1     5   ar
     5     5     6   ar
     6     6     4   ar
     7     6     7    1
     8     7     8    1
     9     8     9   ar
    10     9    10   ar
    11    10    11   ar
    12    11    12   ar
    13    12    13   ar
    14     8    13   ar
    15    11    14    1
    16    14    15    1
    17    15    16    1
    18    15    17    1
    19    15    18    1
    20    16    19    1
    21    19    20    1
    22    19    21    1
    23    19    22    1
    24    16    23    1
    25    16    24    1
    26     2    25    1
    27    25    26    1
    28    26    27    1
    29    26    28    1
    30    26    29    1
    31    27    30    1
    32    27    31    1
    33    27    32    1
    34    31    33    1
    35    31    34    1
    36     3    35    1
    37     1    36    1
    38     5    37    1
    39     4    38    1
    40     9    39    1
    41    10    40    1
    42    12    41    1
    43    13    42    1
    44    23    43    1
    45     7    44    1
    46    44    45    1
    47    44    46    1
    48    44    47    1
    49     7    48    1
    50    48    49    1
    51    48    50    1
    52    48    51    1
    53    30    31    1
@<TRIPOS>SUBSTRUCTURE
     1 DGE          1 RESIDUE