@<TRIPOS>MOLECULE
FDE
    34    34  1  0  0
SMALL
gas

@<TRIPOS>ATOM
      1 O          -3.2857    1.1823   -0.2209 os      1  FDE       -0.3212
      2 C          -4.0387    0.8423    0.8001 cc      1  FDE        0.0455
      3 C5         -3.2647    0.2303    1.7641 cd      1  FDE       -0.0364
      4 C6         -2.0477    0.8173    0.0261 cc      1  FDE        0.0725
      5 C7         -1.9807    0.2153    1.2701 cd      1  FDE       -0.0322
      6 C8         -0.9157    1.0573   -0.9339 c3      1  FDE        0.0457
      7 N           0.3633    0.5063   -0.4109 n3      1  FDE       -0.2919
      8 H          -0.8797    2.1593   -1.0749 h1      1  FDE        0.0503
      9 H1         -1.1637    0.6363   -1.9329 h1      1  FDE        0.0503
     10 C9          1.4513    1.5083   -0.5569 c3      1  FDE        0.0245
     11 C10         0.7223   -0.7907   -1.0529 c3      1  FDE        0.0245
     12 C3         -0.2237   -1.9587   -0.6889 c3      1  FDE        0.0639
     13 H2          1.7183   -1.1117   -0.6949 h1      1  FDE        0.0458
     14 H3          0.7923   -0.6757   -2.1589 h1      1  FDE        0.0458
     15 C1          0.3203   -3.2787   -1.2429 c3      1  FDE       -0.0377
     16 H4          0.3893   -3.2357   -2.3509 hc      1  FDE        0.0257
     17 H5         -0.3547   -4.1137   -0.9589 hc      1  FDE        0.0257
     18 H6          1.3283   -3.4887   -0.8259 hc      1  FDE        0.0257
     19 O1         -1.5057   -1.7467   -1.2199 oh      1  FDE       -0.3921
     20 H7         -0.2657   -2.0317    0.4221 h1      1  FDE        0.0611
     21 C4          2.7003    1.2023    0.3061 c3      1  FDE        0.0639
     22 H8          1.0873    2.5013   -0.2059 h1      1  FDE        0.0458
     23 H9          1.7413    1.6153   -1.6269 h1      1  FDE        0.0458
     24 O2          3.6583    2.2183    0.1421 oh      1  FDE       -0.3921
     25 C2          2.3493    1.0363    1.7901 c3      1  FDE       -0.0377
     26 H10         3.1823    0.2643   -0.0309 h1      1  FDE        0.0611
     27 H11         1.8833    1.9623    2.1901 hc      1  FDE        0.0257
     28 H12         3.2713    0.8193    2.3721 hc      1  FDE        0.0257
     29 H13         1.6433    0.1903    1.9301 hc      1  FDE        0.0257
     30 H14         3.2743    3.0623    0.5001 ho      1  FDE        0.2105
     31 H15        -2.1397   -2.2737   -0.6669 ho      1  FDE        0.2105
     32 H16        -5.1037    1.0223    0.8621 h4      1  FDE        0.0902
     33 H17        -3.5997   -0.1577    2.7161 ha      1  FDE        0.0645
     34 H18        -1.1067   -0.1867    1.7641 ha      1  FDE        0.0648
@<TRIPOS>BOND
     1     1     2    1
     2     2     3    2
     3     1     4    1
     4     4     5    2
     5     3     5    1
     6     4     6    1
     7     6     7    1
     8     6     8    1
     9     6     9    1
    10     7    10    1
    11     7    11    1
    12    11    12    1
    13    11    13    1
    14    11    14    1
    15    12    15    1
    16    15    16    1
    17    15    17    1
    18    15    18    1
    19    12    19    1
    20    12    20    1
    21    10    21    1
    22    10    22    1
    23    10    23    1
    24    21    24    1
    25    21    25    1
    26    21    26    1
    27    25    27    1
    28    25    28    1
    29    25    29    1
    30    24    30    1
    31    19    31    1
    32     2    32    1
    33     3    33    1
    34     5    34    1
@<TRIPOS>SUBSTRUCTURE
     1 FDE          1 RESIDUE