@<TRIPOS>MOLECULE
FDEC
    32    33  1  0  0
SMALL
gas

@<TRIPOS>ATOM
      1 O          -3.3959    0.5341   -0.4322 os      1  FDE       -0.3212
      2 C          -4.0859    0.1941    0.7078 cc      1  FDE        0.0455
      3 C5         -3.2859    0.0441    1.8178 cd      1  FDE       -0.0364
      4 C6         -2.1059    0.5941    0.0378 cc      1  FDE        0.0725
      5 C7         -1.9759    0.3241    1.3778 cd      1  FDE       -0.0322
      6 C8         -0.9759    1.0041   -0.8722 c3      1  FDE        0.0457
      7 N           0.3341    0.4141   -0.4922 n3      1  FDE       -0.2918
      8 H          -0.9259    2.1041   -0.8322 h1      1  FDE        0.0503
      9 H1         -1.2259    0.7441   -1.9122 h1      1  FDE        0.0503
     10 C9          1.4441    1.3841   -0.6022 c3      1  FDE        0.0245
     11 C10         0.6341   -0.9059   -1.1122 c3      1  FDE        0.0274
     12 C3         -0.4259   -2.0159   -0.8722 cx      1  FDE        0.0936
     13 H2          1.5741   -1.2859   -0.6922 h1      1  FDE        0.0459
     14 H3          0.7841   -0.7859   -2.1922 h1      1  FDE        0.0459
     15 C1          0.2041   -3.4259   -1.0022 cx      1  FDE        0.0747
     16 H4          0.6341   -3.5759   -2.0022 h1      1  FDE        0.0595
     17 H5         -0.5559   -4.1959   -0.8322 h1      1  FDE        0.0595
     18 O1         -1.4759   -1.9159   -1.8422 op      1  FDE       -0.3717
     19 H7         -0.8259   -1.9159    0.1378 h1      1  FDE        0.0642
     20 C4          2.7341    0.9841    0.1478 c3      1  FDE        0.0639
     21 H8          1.1141    2.3541   -0.1822 h1      1  FDE        0.0458
     22 H9          1.6841    1.5541   -1.6622 h1      1  FDE        0.0458
     23 O2          3.7041    2.0141    0.0078 oh      1  FDE       -0.3921
     24 C2          2.4841    0.7241    1.6578 c3      1  FDE       -0.0377
     25 H10         3.1441    0.0641   -0.2922 h1      1  FDE        0.0611
     26 H11         2.0341    1.6041    2.1378 hc      1  FDE        0.0257
     27 H12         3.4241    0.4941    2.1678 hc      1  FDE        0.0257
     28 H13         1.8041   -0.1259    1.7978 hc      1  FDE        0.0257
     29 H14         3.3441    2.8141    0.4478 ho      1  FDE        0.2105
     30 H16        -5.1559    0.0841    0.5978 h4      1  FDE        0.0902
     31 H17        -3.5959   -0.2059    2.8178 ha      1  FDE        0.0645
     32 H18        -1.0659    0.3241    1.9678 ha      1  FDE        0.0648
@<TRIPOS>BOND
     1     1     2    1
     2     2     3    2
     3     1     4    1
     4     4     5    2
     5     3     5    1
     6     4     6    1
     7     6     7    1
     8     6     8    1
     9     6     9    1
    10     7    10    1
    11     7    11    1
    12    11    12    1
    13    11    13    1
    14    11    14    1
    15    12    15    1
    16    15    16    1
    17    15    17    1
    18    12    18    1
    19    12    19    1
    20    10    20    1
    21    10    21    1
    22    10    22    1
    23    20    23    1
    24    20    24    1
    25    20    25    1
    26    24    26    1
    27    24    27    1
    28    24    28    1
    29    23    29    1
    30     2    30    1
    31     3    31    1
    32     5    32    1
    33    15    18    1
@<TRIPOS>SUBSTRUCTURE
     1 FDE          1 RESIDUE
