@<TRIPOS>MOLECULE
FDEC
    32    33  1  0  0
SMALL
gas

@<TRIPOS>ATOM
      1 O          -3.4444    0.5141   -0.4503 os      1  FDE       -0.3212
      2 C          -4.1344    0.1741    0.6897 cc      1  FDE        0.0455
      3 C3         -3.3344    0.0241    1.7997 cd      1  FDE       -0.0364
      4 C4         -2.1544    0.5741    0.0197 cc      1  FDE        0.0725
      5 C5         -2.0244    0.3041    1.3597 cd      1  FDE       -0.0322
      6 C6         -1.0244    0.9841   -0.8903 c3      1  FDE        0.0457
      7 N           0.2856    0.3941   -0.5103 n3      1  FDE       -0.2918
      8 H          -0.9744    2.0841   -0.8503 h1      1  FDE        0.0503
      9 H1         -1.2744    0.7241   -1.9303 h1      1  FDE        0.0503
     10 C7          1.3956    1.3641   -0.6203 c3      1  FDE        0.0245
     11 C8          0.5856   -0.9259   -1.1303 c3      1  FDE        0.0274
     12 C9         -0.4744   -2.0359   -0.8903 cx      1  FDE        0.0936
     13 H2          1.5256   -1.3059   -0.7103 h1      1  FDE        0.0459
     14 H3          0.7356   -0.8059   -2.2103 h1      1  FDE        0.0459
     15 C1          0.1556   -3.4459   -1.0203 cx      1  FDE        0.0747
     16 H4          0.5856   -3.5959   -2.0203 h1      1  FDE        0.0595
     17 H5          0.9456   -3.5759   -0.2703 h1      1  FDE        0.0595
     18 O1         -1.5244   -1.9359   -1.8603 op      1  FDE       -0.3717
     19 H7         -0.8744   -1.9359    0.1197 h1      1  FDE        0.0642
     20 C10         2.6856    0.9641    0.1297 c3      1  FDE        0.0639
     21 H8          1.0656    2.3341   -0.2003 h1      1  FDE        0.0458
     22 H9          1.6356    1.5341   -1.6803 h1      1  FDE        0.0458
     23 O2          3.6556    1.9941   -0.0103 oh      1  FDE       -0.3921
     24 C2          2.4356    0.7041    1.6397 c3      1  FDE       -0.0377
     25 H10         3.0956    0.0441   -0.3103 h1      1  FDE        0.0611
     26 H11         1.9856    1.5841    2.1197 hc      1  FDE        0.0257
     27 H12         3.3756    0.4741    2.1497 hc      1  FDE        0.0257
     28 H13         1.7556   -0.1459    1.7797 hc      1  FDE        0.0257
     29 H14         3.2956    2.7941    0.4297 ho      1  FDE        0.2105
     30 H16        -5.2044    0.0641    0.5797 h4      1  FDE        0.0902
     31 H17        -3.6444   -0.2259    2.7997 ha      1  FDE        0.0645
     32 H18        -1.1144    0.3041    1.9497 ha      1  FDE        0.0648
@<TRIPOS>BOND
     1     1     2    1
     2     2     3    2
     3     1     4    1
     4     4     5    2
     5     3     5    1
     6     4     6    1
     7     6     7    1
     8     6     8    1
     9     6     9    1
    10     7    10    1
    11     7    11    1
    12    11    12    1
    13    11    13    1
    14    11    14    1
    15    12    15    1
    16    15    16    1
    17    15    17    1
    18    12    18    1
    19    12    19    1
    20    10    20    1
    21    10    21    1
    22    10    22    1
    23    20    23    1
    24    20    24    1
    25    20    25    1
    26    24    26    1
    27    24    27    1
    28    24    28    1
    29    23    29    1
    30     2    30    1
    31     3    31    1
    32     5    32    1
    33    15    18    1
@<TRIPOS>SUBSTRUCTURE
     1 FDE          1 RESIDUE