@<TRIPOS>MOLECULE
FDEC
    30    32  1  0  0
SMALL
gas

@<TRIPOS>ATOM
      1 O          -3.2683    0.6600   -0.3653 os      1  FDE       -0.3212
      2 C          -3.9583    0.3200    0.7747 cc      1  FDE        0.0455
      3 C3         -3.1583    0.1700    1.8847 cd      1  FDE       -0.0364
      4 C4         -1.9783    0.7200    0.1047 cc      1  FDE        0.0725
      5 C5         -1.8483    0.4500    1.4447 cd      1  FDE       -0.0322
      6 C6         -0.8483    1.1300   -0.8053 c3      1  FDE        0.0457
      7 N           0.4617    0.5400   -0.4253 n3      1  FDE       -0.2917
      8 H          -0.7983    2.2300   -0.7653 h1      1  FDE        0.0503
      9 H1         -1.0983    0.8700   -1.8453 h1      1  FDE        0.0503
     10 C7          1.5717    1.5100   -0.5353 c3      1  FDE        0.0274
     11 C8          0.7617   -0.7800   -1.0453 c3      1  FDE        0.0274
     12 C9         -0.2983   -1.8900   -0.8053 cx      1  FDE        0.0936
     13 H2          1.7017   -1.1600   -0.6253 h1      1  FDE        0.0459
     14 H3          0.9117   -0.6600   -2.1253 h1      1  FDE        0.0459
     15 C1          0.3317   -3.3000   -0.9353 cx      1  FDE        0.0747
     16 H4          0.7617   -3.4500   -1.9353 h1      1  FDE        0.0595
     17 H6          1.1217   -3.4300   -0.1853 h1      1  FDE        0.0595
     18 O1         -1.3483   -1.7900   -1.7753 op      1  FDE       -0.3717
     19 H7         -0.6983   -1.7900    0.2047 h1      1  FDE        0.0642
     20 C10         2.8617    1.1100    0.2147 cx      1  FDE        0.0936
     21 H8          1.2417    2.4800   -0.1153 h1      1  FDE        0.0459
     22 H9          1.8117    1.6800   -1.5953 h1      1  FDE        0.0459
     23 O2          3.8317    2.1400    0.0747 op      1  FDE       -0.3717
     24 C2          2.6117    0.8500    1.7247 cx      1  FDE        0.0747
     25 H10         3.2717    0.1900   -0.2253 h1      1  FDE        0.0642
     26 H12         3.5517    0.6200    2.2347 h1      1  FDE        0.0595
     27 H13         1.9317    0.0000    1.8647 h1      1  FDE        0.0595
     28 H16        -5.0283    0.2100    0.6647 h4      1  FDE        0.0902
     29 H17        -3.4683   -0.0800    2.8847 ha      1  FDE        0.0645
     30 H18        -0.9383    0.4500    2.0347 ha      1  FDE        0.0648
@<TRIPOS>BOND
     1     1     2    1
     2     2     3    2
     3     1     4    1
     4     4     5    2
     5     3     5    1
     6     4     6    1
     7     6     7    1
     8     6     8    1
     9     6     9    1
    10     7    10    1
    11     7    11    1
    12    11    12    1
    13    11    13    1
    14    11    14    1
    15    12    15    1
    16    15    16    1
    17    15    17    1
    18    12    18    1
    19    12    19    1
    20    10    20    1
    21    10    21    1
    22    10    22    1
    23    20    23    1
    24    20    24    1
    25    20    25    1
    26    24    26    1
    27    24    27    1
    28     2    28    1
    29     3    29    1
    30     5    30    1
    31    15    18    1
    32    23    24    1
@<TRIPOS>SUBSTRUCTURE
     1 FDE          1 RESIDUE