@<TRIPOS>MOLECULE
PAC
    41    42  1  0  0
SMALL
gas

@<TRIPOS>ATOM
      1 C          -1.7825   -1.1243   -1.5672 c3      1  PAC       -0.0490
      2 C3         -1.5595   -2.6163   -1.3222 c3      1  PAC       -0.0377
      3 C1         -0.3805   -3.1453   -2.1482 c3      1  PAC        0.0039
      4 C4          0.8895   -2.3263   -1.8982 c3      1  PAC       -0.0377
      5 C5          0.6465   -0.8373   -2.1512 c3      1  PAC       -0.0490
      6 C6         -0.5215   -0.2723   -1.3252 c3      1  PAC       -0.0410
      7 C7         -0.2025   -0.1443    0.1868 c3      1  PAC       -0.0476
      8 C8          0.9235    0.8637    0.5418 c3      1  PAC       -0.0410
      9 C9          0.6205    2.3057    0.1088 c3      1  PAC       -0.0490
     10 C10        -0.5505    2.9057    0.8878 c3      1  PAC       -0.0377
     11 C2         -0.3455    2.8677    2.4088 c3      1  PAC        0.0039
     12 C11         0.1345    1.4937    2.9048 c3      1  PAC       -0.0377
     13 C12         1.2355    0.8617    2.0508 c3      1  PAC       -0.0490
     14 N2          0.5865    3.9257    2.8078 n3      1  PAC       -0.3277
     15 N1         -0.1555   -4.5563   -1.8332 n3      1  PAC       -0.3277
     16 H          -2.6105   -0.7663   -0.9432 hc      1  PAC        0.0270
     17 H1         -2.1025   -0.9863   -2.6092 hc      1  PAC        0.0270
     18 H2         -2.4745   -3.1613   -1.5872 hc      1  PAC        0.0282
     19 H3         -1.3885   -2.7903   -0.2532 hc      1  PAC        0.0282
     20 H4         -0.6425   -3.0793   -3.2102 h1      1  PAC        0.0462
     21 H5          1.6915   -2.6733   -2.5622 hc      1  PAC        0.0282
     22 H6          1.2485   -2.4723   -0.8722 hc      1  PAC        0.0282
     23 H7          0.4195   -0.6993   -3.2172 hc      1  PAC        0.0270
     24 H8          1.5685   -0.2763   -1.9692 hc      1  PAC        0.0270
     25 H9         -0.7525    0.7277   -1.7102 hc      1  PAC        0.0303
     26 H10         0.0715   -1.1253    0.5918 hc      1  PAC        0.0272
     27 H11        -1.1255    0.1367    0.7088 hc      1  PAC        0.0272
     28 H12         1.8385    0.5397    0.0318 hc      1  PAC        0.0303
     29 H13         0.4185    2.3607   -0.9652 hc      1  PAC        0.0270
     30 H14         1.5165    2.9197    0.2688 hc      1  PAC        0.0270
     31 H15        -1.4705    2.3637    0.6388 hc      1  PAC        0.0282
     32 H16        -0.7165    3.9367    0.5538 hc      1  PAC        0.0282
     33 H17        -1.3045    3.0937    2.8898 h1      1  PAC        0.0462
     34 H18        -0.7235    0.8127    2.9348 hc      1  PAC        0.0282
     35 H19         0.4885    1.5687    3.9418 hc      1  PAC        0.0282
     36 H20         1.4225   -0.1643    2.3938 hc      1  PAC        0.0270
     37 H21         2.1735    1.4097    2.2148 hc      1  PAC        0.0270
     38 H22         1.5225    3.7257    2.4618 hn      1  PAC        0.1187
     39 H23         0.6565    3.9537    3.8238 hn      1  PAC        0.1187
     40 H24         0.0885   -4.6573   -0.8492 hn      1  PAC        0.1187
     41 H25         0.6485   -4.8983   -2.3582 hn      1  PAC        0.1187
@<TRIPOS>BOND
     1     1     2    1
     2     2     3    1
     3     3     4    1
     4     4     5    1
     5     5     6    1
     6     1     6    1
     7     6     7    1
     8     7     8    1
     9     8     9    1
    10     9    10    1
    11    10    11    1
    12    11    12    1
    13    12    13    1
    14     8    13    1
    15    11    14    1
    16     3    15    1
    17     1    16    1
    18     1    17    1
    19     2    18    1
    20     2    19    1
    21     3    20    1
    22     4    21    1
    23     4    22    1
    24     5    23    1
    25     5    24    1
    26     6    25    1
    27     7    26    1
    28     7    27    1
    29     8    28    1
    30     9    29    1
    31     9    30    1
    32    10    31    1
    33    10    32    1
    34    11    33    1
    35    12    34    1
    36    12    35    1
    37    13    36    1
    38    13    37    1
    39    14    38    1
    40    14    39    1
    41    15    40    1
    42    15    41    1
@<TRIPOS>SUBSTRUCTURE
     1 PAC          1 RESIDUE