@<TRIPOS>MOLECULE
PACDGE2-6
   143   148  3  0  0
SMALL
gas

@<TRIPOS>ATOM
      1 C           0.9907    5.6530   -1.6060 c3      1  PAC       -0.0489
      2 C3          1.3407    4.1530   -1.4460 c3      1  PAC       -0.0373
      3 C1          2.5507    3.7530   -2.3160 c3      1  PAC        0.0098
      4 C4          3.7707    4.6530   -1.9960 c3      1  PAC       -0.0373
      5 C5          3.4207    6.1430   -2.2060 c3      1  PAC       -0.0489
      6 C6          2.2007    6.6030   -1.3560 c3      1  PAC       -0.0411
      7 C7          2.5107    6.7430    0.1640 c3      1  PAC       -0.0476
      8 C8          3.6107    7.7730    0.5540 c3      1  PAC       -0.0411
      9 C9          3.3207    9.2230    0.0840 c3      1  PAC       -0.0490
     10 C10         2.1507    9.8730    0.8640 c3      1  PAC       -0.0377
     11 C2          2.3807    9.8530    2.3940 c3      1  PAC        0.0039
     12 C11         2.7407    8.4230    2.8940 c3      1  PAC       -0.0377
     13 C12         3.8807    7.7630    2.0840 c3      1  PAC       -0.0490
     14 N2          3.4407   10.8030    2.7740 n3      1  PAC       -0.3277
     15 N1          2.8207    2.3130   -2.1960 n3      1  PAC       -0.2951
     16 H           0.1607    5.9130   -0.9460 hc      1  PAC        0.0270
     17 H1          0.6307    5.8130   -2.6260 hc      1  PAC        0.0270
     18 H2          0.4707    3.5530   -1.7260 hc      1  PAC        0.0283
     19 H3          1.5607    3.9330   -0.3960 hc      1  PAC        0.0283
     20 H4          2.2807    3.9430   -3.3660 h1      1  PAC        0.0467
     21 H5          4.6207    4.4030   -2.6560 hc      1  PAC        0.0283
     22 H6          4.1107    4.4830   -0.9660 hc      1  PAC        0.0283
     23 H7          3.1807    6.3030   -3.2660 hc      1  PAC        0.0270
     24 H8          4.3007    6.7730   -2.0060 hc      1  PAC        0.0270
     25 H9          1.8907    7.5830   -1.7260 hc      1  PAC        0.0303
     26 H10         2.7907    5.7630    0.5640 hc      1  PAC        0.0272
     27 H11         1.5707    7.0030    0.6740 hc      1  PAC        0.0272
     28 H12         4.5507    7.4530    0.0740 hc      1  PAC        0.0303
     29 H13         3.1107    9.2630   -0.9960 hc      1  PAC        0.0270
     30 H14         4.2207    9.8330    0.2240 hc      1  PAC        0.0270
     31 H15         1.2207    9.3530    0.6340 hc      1  PAC        0.0283
     32 H16         2.0207   10.9130    0.5340 hc      1  PAC        0.0283
     33 H17         1.4607   10.1630    2.8940 h1      1  PAC        0.0462
     34 H18         1.8407    7.7930    2.8340 hc      1  PAC        0.0283
     35 H19         3.0107    8.4630    3.9540 hc      1  PAC        0.0283
     36 H20         4.0407    6.7430    2.4340 hc      1  PAC        0.0270
     37 H21         4.8107    8.3130    2.2840 hc      1  PAC        0.0270
     38 H22         4.3207   10.5130    2.3440 hn      1  PAC        0.1187
     39 H23         3.5807   10.7730    3.7840 hn      1  PAC        0.1187
     40 C           2.4907   -4.2070   -2.7860 ca      2  DGE       -0.0315
     41 C5          2.9107   -3.0570   -2.0960 ca      2  DGE        0.0750
     42 C6          2.9807   -3.0870   -0.6860 ca      2  DGE       -0.0315
     43 C7          2.6007   -4.2370    0.0140 ca      2  DGE       -0.0556
     44 C8          2.1107   -5.3570   -2.0760 ca      2  DGE       -0.0556
     45 C9          2.1507   -5.3970   -0.6660 ca      2  DGE       -0.0378
     46 C10         1.7007   -6.6870    0.0740 c3      2  DGE        0.0146
     47 C11         2.6207   -7.8870   -0.2360 ca      2  DGE       -0.0378
     48 C12         3.9307   -7.7070   -0.7360 ca      2  DGE       -0.0556
     49 C13         4.7707   -8.8070   -0.9660 ca      2  DGE       -0.0315
     50 C14         4.3407  -10.1070   -0.6760 ca      2  DGE        0.0750
     51 C15         3.0407  -10.3070   -0.1660 ca      2  DGE       -0.0315
     52 C16         2.2007   -9.1970    0.0540 ca      2  DGE       -0.0556
     53 O           5.2207  -11.1470   -0.8960 os      2  DGE       -0.3434
     54 C17         4.8907  -12.5270   -0.6360 c3      2  DGE        0.0790
     55 C3          6.1107  -13.4070   -0.9860 c3      2  DGE        0.0750
     56 H           4.0207  -12.8470   -1.2460 h1      2  DGE        0.0600
     57 H1          4.6307  -12.6470    0.4240 h1      2  DGE        0.0600
     58 C1          5.9907  -14.8070   -0.3460 c3      2  DGE       -0.0367
     59 H2          5.9307  -14.7370    0.7440 hc      2  DGE        0.0258
     60 H3          6.8707  -15.4170   -0.5860 hc      2  DGE        0.0258
     61 H4          5.1007  -15.3270   -0.7060 hc      2  DGE        0.0258
     62 O1          6.2307  -13.5470   -2.3960 oh      2  DGE       -0.3910
     63 H5          7.0107  -12.9170   -0.5860 h1      2  DGE        0.0622
     64 O2          3.2407   -1.9470   -2.8360 os      2  DGE       -0.3434
     65 C18         3.5907   -0.6670   -2.2660 c3      2  DGE        0.0805
     66 C4          3.7707    0.3230   -3.4360 c3      2  DGE        0.0905
     67 H6          4.5307   -0.7470   -1.6860 h1      2  DGE        0.0600
     68 H7          2.7907   -0.3270   -1.5960 h1      2  DGE        0.0600
     69 O3          4.9007   -0.0570   -4.2160 oh      2  DGE       -0.3894
     70 C2          3.9507    1.7930   -2.9960 c3      2  DGE        0.0270
     71 H8          2.8607    0.2730   -4.0560 h1      2  DGE        0.0639
     72 H10         4.0507    2.3930   -3.9060 h1      2  DGE        0.0459
     73 H11         4.8907    1.9030   -2.4260 h1      2  DGE        0.0459
     74 H12         3.3107   -2.2170   -0.1360 ha      2  DGE        0.0650
     75 H13         2.4407   -4.1970   -3.8660 ha      2  DGE        0.0650
     76 H14         1.7907   -6.2370   -2.6360 ha      2  DGE        0.0627
     77 H15         2.6707   -4.2070    1.0940 ha      2  DGE        0.0627
     78 H16         4.3207   -6.7170   -0.9360 ha      2  DGE        0.0627
     79 H17         5.7807   -8.6470   -1.3460 ha      2  DGE        0.0650
     80 H18         2.6807  -11.2970    0.0740 ha      2  DGE        0.0650
     81 H19         1.2107   -9.3870    0.4740 ha      2  DGE        0.0627
     82 H20         4.7707   -0.9970   -4.4460 ho      2  DGE        0.2106
     83 H21         7.1007  -13.9470   -2.5860 ho      2  DGE        0.2106
     84 C19         0.2307   -6.9770   -0.3660 c3      2  DGE       -0.0517
     85 H22         0.1907   -7.3270   -1.4060 hc      2  DGE        0.0243
     86 H23        -0.3793   -6.0670   -0.2860 hc      2  DGE        0.0243
     87 H24        -0.2393   -7.7370    0.2540 hc      2  DGE        0.0243
     88 C20         1.6807   -6.5070    1.6140 c3      2  DGE       -0.0517
     89 H25         2.6907   -6.3170    2.0040 hc      2  DGE        0.0243
     90 H26         1.3007   -7.4070    2.1140 hc      2  DGE        0.0243
     91 H27         1.0307   -5.6770    1.9140 hc      2  DGE        0.0243
     92 C          -7.9053    1.3690    2.8780 ca      3  DGE       -0.0315
     93 C5         -8.9063    0.7450    2.1250 ca      3  DGE        0.0750
     94 C6         -8.9523    0.9520    0.7410 ca      3  DGE       -0.0315
     95 C7         -8.0203    1.7920    0.1170 ca      3  DGE       -0.0556
     96 C8         -6.9643    2.2120    2.2510 ca      3  DGE       -0.0556
     97 C9         -7.0083    2.4420    0.8610 ca      3  DGE       -0.0378
     98 C10        -5.9653    3.3890    0.2110 c3      3  DGE        0.0146
     99 C11        -4.5263    2.8430    0.3400 ca      3  DGE       -0.0378
    100 C12        -4.2793    1.4760    0.6090 ca      3  DGE       -0.0556
    101 C13        -2.9613    0.9810    0.6740 ca      3  DGE       -0.0315
    102 C14        -1.8693    1.8320    0.4470 ca      3  DGE        0.0750
    103 C15        -2.1073    3.1890    0.1590 ca      3  DGE       -0.0315
    104 C16        -3.4213    3.6760    0.1000 ca      3  DGE       -0.0556
    105 O          -0.6073    1.2890    0.4880 os      3  DGE       -0.3434
    106 C17         0.5957    2.0660    0.3040 c3      3  DGE        0.0805
    107 C3          1.8137    1.1180    0.4020 c3      3  DGE        0.0905
    108 H           0.6737    2.8500    1.0700 h1      3  DGE        0.0600
    109 H1          0.5787    2.5310   -0.6860 h1      3  DGE        0.0600
    110 C1          3.0907    1.7730   -0.1610 c3      3  DGE        0.0270
    111 H3          3.9377    1.0860   -0.0950 h1      3  DGE        0.0459
    112 H2          3.3317    2.6840    0.3960 h1      3  DGE        0.0459
    113 O1          2.0427    0.7550    1.7640 oh      3  DGE       -0.3894
    114 H5          1.5917    0.2170   -0.1900 h1      3  DGE        0.0639
    115 O2         -9.8153   -0.0580    2.7970 os      3  DGE       -0.3434
    116 C18       -10.8863   -0.7600    2.1330 c3      3  DGE        0.0790
    117 C4        -11.7123   -1.5130    3.1980 c3      3  DGE        0.0750
    118 H6        -10.4933   -1.4660    1.3940 h1      3  DGE        0.0600
    119 H7        -11.5343   -0.0380    1.6110 h1      3  DGE        0.0600
    120 O3        -10.9313   -2.5720    3.7450 oh      3  DGE       -0.3910
    121 C2        -13.0103   -2.0910    2.5970 c3      3  DGE       -0.0367
    122 H8        -11.9843   -0.7970    3.9910 h1      3  DGE        0.0622
    123 H9        -13.6383   -1.3000    2.1850 hc      3  DGE        0.0258
    124 H10       -13.5883   -2.6150    3.3680 hc      3  DGE        0.0258
    125 H11       -12.7863   -2.8030    1.7890 hc      3  DGE        0.0258
    126 H12        -9.7223    0.4790    0.1300 ha      3  DGE        0.0650
    127 H13        -7.8523    1.2110    3.9530 ha      3  DGE        0.0650
    128 H14        -6.1913    2.6720    2.8600 ha      3  DGE        0.0627
    129 H15        -8.0983    1.9210   -0.9600 ha      3  DGE        0.0627
    130 H16        -5.0903    0.7770    0.7710 ha      3  DGE        0.0627
    131 H17        -2.7853   -0.0690    0.8840 ha      3  DGE        0.0650
    132 H18        -1.2783    3.8690   -0.0390 ha      3  DGE        0.0650
    133 H19        -3.5653    4.7270   -0.1490 ha      3  DGE        0.0627
    134 H20       -10.1003   -2.1710    4.0660 ho      3  DGE        0.2106
    135 H21         2.6667    0.0030    1.7740 ho      3  DGE        0.2106
    136 C19        -6.0943    4.7690    0.9290 c3      3  DGE       -0.0517
    137 H22        -5.7313    4.7230    1.9560 hc      3  DGE        0.0243
    138 H23        -7.1493    5.0900    0.9580 hc      3  DGE        0.0243
    139 H24        -5.5403    5.5580    0.4070 hc      3  DGE        0.0243
    140 C20        -6.2393    3.6290   -1.2950 c3      3  DGE       -0.0517
    141 H25        -6.1443    2.7000   -1.8720 hc      3  DGE        0.0243
    142 H26        -5.5273    4.3490   -1.7140 hc      3  DGE        0.0243
    143 H27        -7.2463    4.0380   -1.4660 hc      3  DGE        0.0243
@<TRIPOS>BOND
     1     1     2    1
     2     2     3    1
     3     3     4    1
     4     4     5    1
     5     5     6    1
     6     1     6    1
     7     6     7    1
     8     7     8    1
     9     8     9    1
    10     9    10    1
    11    10    11    1
    12    11    12    1
    13    12    13    1
    14     8    13    1
    15    11    14    1
    16     3    15    1
    17     1    16    1
    18     1    17    1
    19     2    18    1
    20     2    19    1
    21     3    20    1
    22     4    21    1
    23     4    22    1
    24     5    23    1
    25     5    24    1
    26     6    25    1
    27     7    26    1
    28     7    27    1
    29     8    28    1
    30     9    29    1
    31     9    30    1
    32    10    31    1
    33    10    32    1
    34    11    33    1
    35    12    34    1
    36    12    35    1
    37    13    36    1
    38    13    37    1
    39    14    38    1
    40    14    39    1
    41    40    41   ar
    42    41    42   ar
    43    42    43   ar
    44    40    44   ar
    45    44    45   ar
    46    45    43   ar
    47    45    46    1
    48    46    47    1
    49    47    48   ar
    50    48    49   ar
    51    49    50   ar
    52    50    51   ar
    53    51    52   ar
    54    47    52   ar
    55    50    53    1
    56    53    54    1
    57    54    55    1
    58    54    56    1
    59    54    57    1
    60    55    58    1
    61    58    59    1
    62    58    60    1
    63    58    61    1
    64    55    62    1
    65    55    63    1
    66    41    64    1
    67    64    65    1
    68    65    66    1
    69    65    67    1
    70    65    68    1
    71    66    69    1
    72    66    70    1
    73    66    71    1
    74    70    72    1
    75    70    73    1
    76    42    74    1
    77    40    75    1
    78    44    76    1
    79    43    77    1
    80    48    78    1
    81    49    79    1
    82    51    80    1
    83    52    81    1
    84    69    82    1
    85    62    83    1
    86    46    84    1
    87    84    85    1
    88    84    86    1
    89    84    87    1
    90    46    88    1
    91    88    89    1
    92    88    90    1
    93    88    91    1
    94    15    70    1
    95    92    93   ar
    96    93    94   ar
    97    94    95   ar
    98    92    96   ar
    99    96    97   ar
   100    97    95   ar
   101    97    98    1
   102    98    99    1
   103    99   100   ar
   104   100   101   ar
   105   101   102   ar
   106   102   103   ar
   107   103   104   ar
   108    99   104   ar
   109   102   105    1
   110   105   106    1
   111   106   107    1
   112   106   108    1
   113   106   109    1
   114   107   110    1
   115   110   111    1
   116   110   112    1
   117   107   113    1
   118   107   114    1
   119    93   115    1
   120   115   116    1
   121   116   117    1
   122   116   118    1
   123   116   119    1
   124   117   120    1
   125   117   121    1
   126   117   122    1
   127   121   123    1
   128   121   124    1
   129   121   125    1
   130    94   126    1
   131    92   127    1
   132    96   128    1
   133    95   129    1
   134   100   130    1
   135   101   131    1
   136   103   132    1
   137   104   133    1
   138   120   134    1
   139   113   135    1
   140    98   136    1
   141   136   137    1
   142   136   138    1
   143   136   139    1
   144    98   140    1
   145   140   141    1
   146   140   142    1
   147   140   143    1
   148    15   110    1
@<TRIPOS>SUBSTRUCTURE
     1 PAC          1 RESIDUE
     2 DGE          1 RESIDUE
     3 DGE          1 RESIDUE