@<TRIPOS>MOLECULE
PACDGE2-3
   143   148  3  0  0
SMALL
gas

@<TRIPOS>ATOM
      1 C          -4.2912   -0.9641   -6.8012 c3      1  PAC       -0.0490
      2 C3         -4.0712   -2.4741   -6.5612 c3      1  PAC       -0.0377
      3 C1         -2.8312   -3.0141   -7.3212 c3      1  PAC        0.0039
      4 C4         -1.5712   -2.1641   -7.0312 c3      1  PAC       -0.0377
      5 C5         -1.8212   -0.6541   -7.2812 c3      1  PAC       -0.0490
      6 C6         -3.0312   -0.1041   -6.4712 c3      1  PAC       -0.0411
      7 C7         -2.7912   -0.0441   -4.9312 c3      1  PAC       -0.0476
      8 C8         -1.6112    0.8459   -4.4412 c3      1  PAC       -0.0411
      9 C9         -1.7912    2.3559   -4.7612 c3      1  PAC       -0.0489
     10 C10        -2.8712    3.0359   -3.8712 c3      1  PAC       -0.0373
     11 C2         -2.6412    2.8159   -2.3612 c3      1  PAC        0.0098
     12 C11        -2.4812    1.2959   -2.0612 c3      1  PAC       -0.0373
     13 C12        -1.3712    0.6459   -2.9212 c3      1  PAC       -0.0489
     14 N2         -1.4712    3.5859   -1.9012 n3      1  PAC       -0.2951
     15 N1         -2.5912   -4.4141   -6.9812 n3      1  PAC       -0.3277
     16 H          -5.1412   -0.6141   -6.2012 hc      1  PAC        0.0270
     17 H1         -4.5612   -0.8041   -7.8512 hc      1  PAC        0.0270
     18 H2         -4.9612   -3.0241   -6.8812 hc      1  PAC        0.0283
     19 H3         -3.9612   -2.6741   -5.4812 hc      1  PAC        0.0283
     20 H4         -3.0412   -2.9441   -8.3912 h1      1  PAC        0.0462
     21 H5         -0.7412   -2.5041   -7.6712 hc      1  PAC        0.0283
     22 H6         -1.2412   -2.3141   -5.9912 hc      1  PAC        0.0283
     23 H7         -2.0212   -0.5141   -8.3512 hc      1  PAC        0.0270
     24 H8         -0.9112   -0.0841   -7.0712 hc      1  PAC        0.0270
     25 H9         -3.2312    0.9059   -6.8312 hc      1  PAC        0.0303
     26 H10        -2.6212   -1.0641   -4.5612 hc      1  PAC        0.0272
     27 H11        -3.7212    0.2959   -4.4612 hc      1  PAC        0.0272
     28 H12        -0.6912    0.5059   -4.9512 hc      1  PAC        0.0303
     29 H13        -2.0212    2.5159   -5.8212 hc      1  PAC        0.0270
     30 H14        -0.8312    2.8659   -4.5812 hc      1  PAC        0.0270
     31 H15        -3.8512    2.6459   -4.1512 hc      1  PAC        0.0283
     32 H16        -2.8912    4.1159   -4.0912 hc      1  PAC        0.0283
     33 H17        -3.5312    3.1859   -1.8312 h1      1  PAC        0.0467
     34 H18        -3.4412    0.7959   -2.2512 hc      1  PAC        0.0283
     35 H19        -2.2712    1.1159   -1.0012 hc      1  PAC        0.0283
     36 H20        -1.3012   -0.4241   -2.6912 hc      1  PAC        0.0270
     37 H21        -0.4012    1.0859   -2.6512 hc      1  PAC        0.0270
     38 H24        -2.3612   -4.4941   -5.9912 hn      1  PAC        0.1187
     39 H25        -1.7812   -4.7541   -7.4912 hn      1  PAC        0.1187
     40 C           3.5188    4.3159    3.2488 ca      2  DGE       -0.0315
     41 C5          2.1288    4.2459    3.0888 ca      2  DGE        0.0750
     42 C6          1.3188    4.0459    4.2188 ca      2  DGE       -0.0315
     43 C7          1.8888    3.9159    5.4888 ca      2  DGE       -0.0556
     44 C8          4.0988    4.1859    4.5288 ca      2  DGE       -0.0556
     45 C9          3.2888    3.9859    5.6688 ca      2  DGE       -0.0378
     46 C10         3.9688    3.8559    7.0588 c3      2  DGE        0.0146
     47 C11         4.7188    5.1459    7.4388 ca      2  DGE       -0.0378
     48 C12         4.3588    6.3959    6.8888 ca      2  DGE       -0.0556
     49 C13         5.0188    7.5759    7.2688 ca      2  DGE       -0.0315
     50 C14         6.0488    7.5359    8.2288 ca      2  DGE        0.0750
     51 C15         6.3988    6.3059    8.8088 ca      2  DGE       -0.0315
     52 C16         5.7388    5.1259    8.4188 ca      2  DGE       -0.0556
     53 O           6.6488    8.7259    8.5788 os      2  DGE       -0.3434
     54 C17         7.6788    8.8259    9.5788 c3      2  DGE        0.0790
     55 C3          8.0988   10.3059    9.7188 c3      2  DGE        0.0750
     56 H           8.5488    8.2159    9.3088 h1      2  DGE        0.0600
     57 H1          7.2788    8.4759   10.5388 h1      2  DGE        0.0600
     58 C1          8.8388   10.5659   11.0388 c3      2  DGE       -0.0367
     59 H2          8.2088   10.3159   11.8988 hc      2  DGE        0.0258
     60 H3          9.1288   11.6159   11.1288 hc      2  DGE        0.0258
     61 H4          9.7488    9.9559   11.0988 hc      2  DGE        0.0258
     62 O1          8.9488   10.6759    8.6288 oh      2  DGE       -0.3910
     63 H5          7.1888   10.9259    9.6988 h1      2  DGE        0.0622
     64 O2          1.6188    4.3659    1.8088 os      2  DGE       -0.3434
     65 C18         0.2188    4.2059    1.5088 c3      2  DGE        0.0805
     66 C4          0.0388    4.2959   -0.0212 c3      2  DGE        0.0905
     67 H6         -0.3712    4.9859    1.9988 h1      2  DGE        0.0600
     68 H7         -0.1212    3.2259    1.8588 h1      2  DGE        0.0600
     69 O3          0.1688    5.6559   -0.4412 oh      2  DGE       -0.3894
     70 C2         -1.3412    3.7359   -0.4412 c3      2  DGE        0.0270
     71 H8          0.8088    3.6759   -0.5012 h1      2  DGE        0.0639
     72 H10        -1.4712    2.7659    0.0588 h1      2  DGE        0.0459
     73 H11        -2.1312    4.3959   -0.0612 h1      2  DGE        0.0459
     74 H12         0.2388    3.9859    4.1188 ha      2  DGE        0.0650
     75 H13         4.1588    4.4759    2.3888 ha      2  DGE        0.0650
     76 H14         5.1788    4.2659    4.6288 ha      2  DGE        0.0627
     77 H15         1.2188    3.7759    6.3288 ha      2  DGE        0.0627
     78 H16         3.5588    6.4759    6.1588 ha      2  DGE        0.0627
     79 H17         4.7388    8.5259    6.8288 ha      2  DGE        0.0650
     80 H18         7.1788    6.2459    9.5588 ha      2  DGE        0.0650
     81 H19         6.0288    4.1959    8.8988 ha      2  DGE        0.0627
     82 H20         1.0588    5.9459   -0.1612 ho      2  DGE        0.2106
     83 H21         9.0488   11.6459    8.6388 ho      2  DGE        0.2106
     84 C19         4.9388    2.6359    6.9788 c3      2  DGE       -0.0517
     85 H22         5.8088    2.8459    6.3488 hc      2  DGE        0.0243
     86 H23         4.4188    1.7559    6.5588 hc      2  DGE        0.0243
     87 H24         5.3088    2.3359    7.9688 hc      2  DGE        0.0243
     88 C20         2.9588    3.5659    8.1988 c3      2  DGE       -0.0517
     89 H25         2.2388    4.3859    8.3088 hc      2  DGE        0.0243
     90 H26         3.4688    3.4359    9.1588 hc      2  DGE        0.0243
     91 H27         2.3888    2.6359    8.0088 hc      2  DGE        0.0243
     92 C          -2.3422   -2.7801   -3.7652 ca      3  DGE       -0.0315
     93 C5         -1.9292   -1.7931   -2.8632 ca      3  DGE        0.0750
     94 C6         -2.2392   -1.9341   -1.5042 ca      3  DGE       -0.0315
     95 C7         -2.9712   -3.0401   -1.0542 ca      3  DGE       -0.0556
     96 C8         -3.0762   -3.8961   -3.3132 ca      3  DGE       -0.0556
     97 C9         -3.4092   -4.0421   -1.9502 ca      3  DGE       -0.0378
     98 C10        -4.2332   -5.2761   -1.4952 c3      3  DGE        0.0146
     99 C11        -3.4692   -6.5991   -1.7212 ca      3  DGE       -0.0378
    100 C12        -2.0662   -6.6181   -1.8952 ca      3  DGE       -0.0556
    101 C13        -1.3762   -7.8381   -2.0512 ca      3  DGE       -0.0315
    102 C14        -2.0682   -9.0581   -2.0102 ca      3  DGE        0.0750
    103 C15        -3.4612   -9.0471   -1.8192 ca      3  DGE       -0.0315
    104 C16        -4.1432   -7.8301   -1.6692 ca      3  DGE       -0.0556
    105 O          -1.3402  -10.2171   -2.1322 os      3  DGE       -0.3434
    106 C17        -1.9402  -11.5311   -2.1392 c3      3  DGE        0.0790
    107 C3         -0.8152  -12.5841   -2.2792 c3      3  DGE        0.0750
    108 H          -2.6472  -11.6321   -2.9752 h1      3  DGE        0.0600
    109 H1         -2.4712  -11.6921   -1.1982 h1      3  DGE        0.0600
    110 C1         -1.3112  -13.9961   -1.9072 c3      3  DGE       -0.0367
    111 H2         -1.6822  -14.0171   -0.8722 hc      3  DGE        0.0258
    112 H3         -0.5022  -14.7251   -1.9992 hc      3  DGE        0.0258
    113 H4         -2.1332  -14.2981   -2.5632 hc      3  DGE        0.0258
    114 O1         -0.3272  -12.6041   -3.6212 oh      3  DGE       -0.3910
    115 H5          0.0048  -12.3091   -1.5972 h1      3  DGE        0.0622
    116 O2         -1.2252   -0.7101   -3.3662 os      3  DGE       -0.3434
    117 C18        -0.7412    0.3669   -2.5392 c3      3  DGE        0.0805
    118 C4         -0.0462    1.4069   -3.4452 c3      3  DGE        0.0905
    119 H6         -0.0372   -0.0031   -1.7852 h1      3  DGE        0.0600
    120 H7         -1.5862    0.8439   -2.0182 h1      3  DGE        0.0600
    121 O3          1.1538    0.8499   -3.9742 oh      3  DGE       -0.3894
    122 C2          0.2868    2.6959   -2.6672 c3      3  DGE        0.0270
    123 H8         -0.7372    1.6629   -4.2652 h1      3  DGE        0.0639
    124 H10         0.7718    3.4259   -3.3272 h1      3  DGE        0.0459
    125 H11         0.9658    2.4849   -1.8282 h1      3  DGE        0.0459
    126 H12        -1.9302   -1.1791   -0.7792 ha      3  DGE        0.0650
    127 H13        -2.1022   -2.6891   -4.8222 ha      3  DGE        0.0650
    128 H14        -3.3712   -4.6521   -4.0352 ha      3  DGE        0.0627
    129 H15        -3.1872   -3.1031    0.0108 ha      3  DGE        0.0627
    130 H16        -1.4802   -5.7041   -1.9042 ha      3  DGE        0.0627
    131 H17        -0.2992   -7.8391   -2.1862 ha      3  DGE        0.0650
    132 H18        -4.0222   -9.9811   -1.7662 ha      3  DGE        0.0650
    133 H19        -5.2182   -7.8651   -1.4982 ha      3  DGE        0.0627
    134 H20         0.9048    0.0119   -4.4122 ho      3  DGE        0.2106
    135 H21         0.5088  -13.1111   -3.6282 ho      3  DGE        0.2106
    136 C19        -5.5612   -5.2611   -2.3122 c3      3  DGE       -0.0517
    137 H22        -5.3912   -5.5051   -3.3622 hc      3  DGE        0.0243
    138 H23        -6.0342   -4.2661   -2.2612 hc      3  DGE        0.0243
    139 H24        -6.2942   -5.9771   -1.9202 hc      3  DGE        0.0243
    140 C20        -4.6162   -5.2111    0.0048 c3      3  DGE       -0.0517
    141 H25        -3.7272   -5.2381    0.6478 hc      3  DGE        0.0243
    142 H26        -5.2502   -6.0601    0.2848 hc      3  DGE        0.0243
    143 H27        -5.1832   -4.2981    0.2418 hc      3  DGE        0.0243
@<TRIPOS>BOND
     1     1     2    1
     2     2     3    1
     3     3     4    1
     4     4     5    1
     5     5     6    1
     6     1     6    1
     7     6     7    1
     8     7     8    1
     9     8     9    1
    10     9    10    1
    11    10    11    1
    12    11    12    1
    13    12    13    1
    14     8    13    1
    15    11    14    1
    16     3    15    1
    17     1    16    1
    18     1    17    1
    19     2    18    1
    20     2    19    1
    21     3    20    1
    22     4    21    1
    23     4    22    1
    24     5    23    1
    25     5    24    1
    26     6    25    1
    27     7    26    1
    28     7    27    1
    29     8    28    1
    30     9    29    1
    31     9    30    1
    32    10    31    1
    33    10    32    1
    34    11    33    1
    35    12    34    1
    36    12    35    1
    37    13    36    1
    38    13    37    1
    39    15    38    1
    40    15    39    1
    41    40    41   ar
    42    41    42   ar
    43    42    43   ar
    44    40    44   ar
    45    44    45   ar
    46    45    43   ar
    47    45    46    1
    48    46    47    1
    49    47    48   ar
    50    48    49   ar
    51    49    50   ar
    52    50    51   ar
    53    51    52   ar
    54    47    52   ar
    55    50    53    1
    56    53    54    1
    57    54    55    1
    58    54    56    1
    59    54    57    1
    60    55    58    1
    61    58    59    1
    62    58    60    1
    63    58    61    1
    64    55    62    1
    65    55    63    1
    66    41    64    1
    67    64    65    1
    68    65    66    1
    69    65    67    1
    70    65    68    1
    71    66    69    1
    72    66    70    1
    73    66    71    1
    74    70    72    1
    75    70    73    1
    76    42    74    1
    77    40    75    1
    78    44    76    1
    79    43    77    1
    80    48    78    1
    81    49    79    1
    82    51    80    1
    83    52    81    1
    84    69    82    1
    85    62    83    1
    86    46    84    1
    87    84    85    1
    88    84    86    1
    89    84    87    1
    90    46    88    1
    91    88    89    1
    92    88    90    1
    93    88    91    1
    94    14    70    1
    95    92    93   ar
    96    93    94   ar
    97    94    95   ar
    98    92    96   ar
    99    96    97   ar
   100    97    95   ar
   101    97    98    1
   102    98    99    1
   103    99   100   ar
   104   100   101   ar
   105   101   102   ar
   106   102   103   ar
   107   103   104   ar
   108    99   104   ar
   109   102   105    1
   110   105   106    1
   111   106   107    1
   112   106   108    1
   113   106   109    1
   114   107   110    1
   115   110   111    1
   116   110   112    1
   117   110   113    1
   118   107   114    1
   119   107   115    1
   120    93   116    1
   121   116   117    1
   122   117   118    1
   123   117   119    1
   124   117   120    1
   125   118   121    1
   126   118   122    1
   127   118   123    1
   128   122   124    1
   129   122   125    1
   130    94   126    1
   131    92   127    1
   132    96   128    1
   133    95   129    1
   134   100   130    1
   135   101   131    1
   136   103   132    1
   137   104   133    1
   138   121   134    1
   139   114   135    1
   140    98   136    1
   141   136   137    1
   142   136   138    1
   143   136   139    1
   144    98   140    1
   145   140   141    1
   146   140   142    1
   147   140   143    1
   148    14   122    1
@<TRIPOS>SUBSTRUCTURE
     1 PAC          1 RESIDUE
     2 DGE          1 RESIDUE
     3 DGE          1 RESIDUE