@<TRIPOS>MOLECULE
PACDGE
    92    95  2  0  0
SMALL
gas

@<TRIPOS>ATOM
      1 C           2.5390   -3.5189   -5.0370 c3      1  PAC       -0.0490
      2 C3          2.7790   -5.0189   -4.7770 c3      1  PAC       -0.0377
      3 C2          3.9690   -5.5589   -5.6070 c3      1  PAC        0.0039
      4 C4          5.2490   -4.7189   -5.3970 c3      1  PAC       -0.0377
      5 C5          4.9790   -3.2089   -5.6570 c3      1  PAC       -0.0490
      6 C6          3.8090   -2.6489   -4.8070 c3      1  PAC       -0.0411
      7 C7          4.1390   -2.5189   -3.2870 c3      1  PAC       -0.0476
      8 C8          5.2590   -1.4989   -2.9170 c3      1  PAC       -0.0411
      9 C9          4.9590   -0.0389   -3.3570 c3      1  PAC       -0.0490
     10 C10         3.7790    0.5911   -2.5670 c3      1  PAC       -0.0375
     11 C1          3.9990    0.5311   -1.0370 c3      1  PAC        0.0068
     12 C11         4.3990   -0.8889   -0.5570 c3      1  PAC       -0.0375
     13 C12         5.5390   -1.5089   -1.3970 c3      1  PAC       -0.0490
     14 N1          5.0190    1.5211   -0.6370 n3      1  PAC       -0.3113
     15 N2          4.2190   -6.9689   -5.2870 n3      1  PAC       -0.3277
     16 H           1.7190   -3.1589   -4.3970 hc      1  PAC        0.0270
     17 H1          2.1990   -3.3889   -6.0670 hc      1  PAC        0.0270
     18 H2          1.8690   -5.5889   -5.0270 hc      1  PAC        0.0283
     19 H3          2.9690   -5.1889   -3.7070 hc      1  PAC        0.0283
     20 H4          3.6890   -5.4989   -6.6670 h1      1  PAC        0.0462
     21 H5          6.0390   -5.0689   -6.0670 hc      1  PAC        0.0283
     22 H6          5.6190   -4.8589   -4.3770 hc      1  PAC        0.0283
     23 H7          4.7390   -3.0789   -6.7170 hc      1  PAC        0.0270
     24 H8          5.8990   -2.6389   -5.4770 hc      1  PAC        0.0270
     25 H9          3.5590   -1.6489   -5.1970 hc      1  PAC        0.0303
     26 H10         4.4190   -3.4989   -2.8970 hc      1  PAC        0.0272
     27 H11         3.2190   -2.2389   -2.7670 hc      1  PAC        0.0272
     28 H12         6.1890   -1.8089   -3.4170 hc      1  PAC        0.0303
     29 H13         4.7590    0.0211   -4.4370 hc      1  PAC        0.0270
     30 H14         5.8490    0.5711   -3.1970 hc      1  PAC        0.0270
     31 H15         2.8490    0.0511   -2.8170 hc      1  PAC        0.0283
     32 H16         3.6290    1.6211   -2.8870 hc      1  PAC        0.0283
     33 H17         3.0590    0.8111   -0.5470 h1      1  PAC        0.0465
     34 H18         3.5190   -1.5389   -0.6070 hc      1  PAC        0.0283
     35 H19         4.6890   -0.8489    0.5030 hc      1  PAC        0.0283
     36 H20         5.7290   -2.5389   -1.0570 hc      1  PAC        0.0270
     37 H21         6.4690   -0.9589   -1.1970 hc      1  PAC        0.0270
     38 H22         5.9190    1.2611   -1.0570 hn      1  PAC        0.1226
     39 H24         4.4990   -7.0489   -4.3070 hn      1  PAC        0.1187
     40 H25         5.0090   -7.3089   -5.8370 hn      1  PAC        0.1187
     41 C          -5.6630    2.3721    4.5430 ca      2  DGE       -0.0315
     42 C5         -6.7090    1.6541    3.9530 ca      2  DGE        0.0750
     43 C6         -6.7650    1.5471    2.5580 ca      2  DGE       -0.0315
     44 C7         -5.7970    2.1691    1.7580 ca      2  DGE       -0.0556
     45 C8         -4.6850    2.9951    3.7400 ca      2  DGE       -0.0556
     46 C9         -4.7380    2.9101    2.3340 ca      2  DGE       -0.0378
     47 C10        -3.6530    3.6241    1.4850 c3      2  DGE        0.0146
     48 C11        -2.2460    3.0371    1.7300 ca      2  DGE       -0.0378
     49 C12        -2.0730    1.7541    2.3000 ca      2  DGE       -0.0556
     50 C13        -0.7840    1.2101    2.4710 ca      2  DGE       -0.0315
     51 C14         0.3510    1.9221    2.0550 ca      2  DGE        0.0750
     52 C15         0.1860    3.1911    1.4700 ca      2  DGE       -0.0315
     53 C16        -1.1000    3.7291    1.3060 ca      2  DGE       -0.0556
     54 O           1.5810    1.3291    2.2140 os      2  DGE       -0.3434
     55 C17         2.8230    1.9741    1.8570 c3      2  DGE        0.0805
     56 C3          3.9870    1.0021    2.1630 c3      2  DGE        0.0903
     57 H           2.9570    2.9041    2.4270 h1      2  DGE        0.0600
     58 H1          2.8170    2.2051    0.7880 h1      2  DGE        0.0600
     59 C1          5.2890    1.4381    1.4640 c3      2  DGE        0.0238
     60 H3          6.0970    0.7351    1.6800 h1      2  DGE        0.0456
     61 H2          5.5900    2.4351    1.8010 h1      2  DGE        0.0456
     62 O1          4.2160    0.9421    3.5720 oh      2  DGE       -0.3894
     63 H5          3.7050    0.0061    1.7900 h1      2  DGE        0.0639
     64 O2         -7.6510    1.0771    4.7900 os      2  DGE       -0.3434
     65 C18        -8.7700    0.3091    4.3050 c3      2  DGE        0.0790
     66 C4         -9.6210   -0.1359    5.5140 c3      2  DGE        0.0750
     67 H6         -8.4300   -0.5679    3.7430 h1      2  DGE        0.0600
     68 H7         -9.3850    0.9311    3.6350 h1      2  DGE        0.0600
     69 O3         -8.8920   -1.0889    6.2830 oh      2  DGE       -0.3910
     70 C2        -10.9580   -0.7579    5.0620 c3      2  DGE       -0.0367
     71 H8         -9.8400    0.7541    6.1260 h1      2  DGE        0.0622
     72 H9        -11.5480   -0.0439    4.4840 hc      2  DGE        0.0258
     73 H10       -11.5530   -1.0599    5.9320 hc      2  DGE        0.0258
     74 H11       -10.7880   -1.6449    4.4350 hc      2  DGE        0.0258
     75 H12        -7.5700    0.9941    2.0710 ha      2  DGE        0.0650
     76 H13        -5.6010    2.4571    5.6260 ha      2  DGE        0.0650
     77 H14        -3.8780    3.5351    4.2280 ha      2  DGE        0.0627
     78 H15        -5.8840    2.0571    0.6800 ha      2  DGE        0.0627
     79 H16        -2.9190    1.1581    2.6170 ha      2  DGE        0.0627
     80 H17        -0.6640    0.2251    2.9120 ha      2  DGE        0.0650
     81 H18         1.0480    3.7591    1.1220 ha      2  DGE        0.0650
     82 H19        -1.1880    4.7031    0.8260 ha      2  DGE        0.0627
     83 H20        -8.0350   -0.6749    6.5030 ho      2  DGE        0.2106
     84 H21         4.7970    0.1761    3.7490 ho      2  DGE        0.2106
     85 C19        -3.6930    5.1341    1.8730 c3      2  DGE       -0.0517
     86 H22        -3.3170    5.2991    2.8840 hc      2  DGE        0.0243
     87 H23        -4.7280    5.5151    1.8310 hc      2  DGE        0.0243
     88 H24        -3.1040    5.7531    1.1860 hc      2  DGE        0.0243
     89 C20        -3.9370    3.5341   -0.0360 c3      2  DGE       -0.0517
     90 H25        -3.9040    2.4951   -0.3890 hc      2  DGE        0.0243
     91 H26        -3.1920    4.0981   -0.6080 hc      2  DGE        0.0243
     92 H27        -4.9220    3.9521   -0.2930 hc      2  DGE        0.0243
@<TRIPOS>BOND
     1     1     2    1
     2     2     3    1
     3     3     4    1
     4     4     5    1
     5     5     6    1
     6     1     6    1
     7     6     7    1
     8     7     8    1
     9     8     9    1
    10     9    10    1
    11    10    11    1
    12    11    12    1
    13    12    13    1
    14     8    13    1
    15    11    14    1
    16     3    15    1
    17     1    16    1
    18     1    17    1
    19     2    18    1
    20     2    19    1
    21     3    20    1
    22     4    21    1
    23     4    22    1
    24     5    23    1
    25     5    24    1
    26     6    25    1
    27     7    26    1
    28     7    27    1
    29     8    28    1
    30     9    29    1
    31     9    30    1
    32    10    31    1
    33    10    32    1
    34    11    33    1
    35    12    34    1
    36    12    35    1
    37    13    36    1
    38    13    37    1
    39    14    38    1
    40    15    39    1
    41    15    40    1
    42    41    42   ar
    43    42    43   ar
    44    43    44   ar
    45    41    45   ar
    46    45    46   ar
    47    44    46   ar
    48    46    47    1
    49    47    48    1
    50    48    49   ar
    51    49    50   ar
    52    50    51   ar
    53    51    52   ar
    54    52    53   ar
    55    48    53   ar
    56    51    54    1
    57    54    55    1
    58    55    56    1
    59    55    57    1
    60    55    58    1
    61    56    59    1
    62    59    60    1
    63    59    61    1
    64    56    62    1
    65    56    63    1
    66    42    64    1
    67    64    65    1
    68    65    66    1
    69    65    67    1
    70    65    68    1
    71    66    69    1
    72    66    70    1
    73    66    71    1
    74    70    72    1
    75    70    73    1
    76    70    74    1
    77    43    75    1
    78    41    76    1
    79    45    77    1
    80    44    78    1
    81    49    79    1
    82    50    80    1
    83    52    81    1
    84    53    82    1
    85    69    83    1
    86    62    84    1
    87    47    85    1
    88    85    86    1
    89    85    87    1
    90    85    88    1
    91    47    89    1
    92    89    90    1
    93    89    91    1
    94    89    92    1
    95    14    59    1
@<TRIPOS>SUBSTRUCTURE
     1 PAC          1 RESIDUE
     2 DGE          1 RESIDUE
