@<TRIPOS>MOLECULE
PACDGE
    92    95  2  0  0
SMALL
gas

@<TRIPOS>ATOM
      1 C           0.0660    1.7239    4.1881 c3      1  PAC       -0.0490
      2 C3          0.3060    0.2239    4.4481 c3      1  PAC       -0.0375
      3 C1          1.4960   -0.3161    3.6181 c3      1  PAC        0.0068
      4 C4          2.7760    0.5239    3.8281 c3      1  PAC       -0.0375
      5 C5          2.5060    2.0339    3.5681 c3      1  PAC       -0.0490
      6 C6          1.3360    2.5939    4.4181 c3      1  PAC       -0.0411
      7 C7          1.6660    2.7239    5.9381 c3      1  PAC       -0.0476
      8 C8          2.7860    3.7439    6.3081 c3      1  PAC       -0.0411
      9 C9          2.4860    5.2039    5.8681 c3      1  PAC       -0.0490
     10 C10         1.3060    5.8339    6.6581 c3      1  PAC       -0.0377
     11 C2          1.5260    5.7739    8.1881 c3      1  PAC        0.0039
     12 C11         1.9260    4.3539    8.6681 c3      1  PAC       -0.0377
     13 C12         3.0660    3.7339    7.8281 c3      1  PAC       -0.0490
     14 N2          2.5460    6.7639    8.5881 n3      1  PAC       -0.3277
     15 N1          1.7460   -1.7261    3.9381 n3      1  PAC       -0.3113
     16 H          -0.7540    2.0839    4.8281 hc      1  PAC        0.0270
     17 H1         -0.2740    1.8539    3.1581 hc      1  PAC        0.0270
     18 H2         -0.6040   -0.3461    4.1981 hc      1  PAC        0.0283
     19 H3          0.4960    0.0539    5.5181 hc      1  PAC        0.0283
     20 H4          1.2160   -0.2561    2.5581 h1      1  PAC        0.0465
     21 H5          3.5660    0.1739    3.1581 hc      1  PAC        0.0283
     22 H6          3.1460    0.3839    4.8481 hc      1  PAC        0.0283
     23 H7          2.2660    2.1639    2.5081 hc      1  PAC        0.0270
     24 H8          3.4260    2.6039    3.7481 hc      1  PAC        0.0270
     25 H9          1.0860    3.5939    4.0281 hc      1  PAC        0.0303
     26 H10         1.9460    1.7439    6.3281 hc      1  PAC        0.0272
     27 H11         0.7460    3.0039    6.4581 hc      1  PAC        0.0272
     28 H12         3.7160    3.4339    5.8081 hc      1  PAC        0.0303
     29 H13         2.2860    5.2639    4.7881 hc      1  PAC        0.0270
     30 H14         3.3760    5.8139    6.0281 hc      1  PAC        0.0270
     31 H15         0.3760    5.2939    6.4081 hc      1  PAC        0.0283
     32 H16         1.1560    6.8639    6.3381 hc      1  PAC        0.0283
     33 H17         0.5860    6.0539    8.6781 h1      1  PAC        0.0462
     34 H18         1.0460    3.7039    8.6181 hc      1  PAC        0.0283
     35 H19         2.2160    4.3939    9.7281 hc      1  PAC        0.0283
     36 H20         3.2560    2.7039    8.1681 hc      1  PAC        0.0270
     37 H21         3.9960    4.2839    8.0281 hc      1  PAC        0.0270
     38 H22         3.4460    6.5039    8.1681 hn      1  PAC        0.1187
     39 H23         2.6760    6.7239    9.5981 hn      1  PAC        0.1187
     40 H24         2.0260   -1.8061    4.9181 hn      1  PAC        0.1226
     41 C          -1.8530   -3.0961   -7.3239 ca      2  DGE       -0.0315
     42 C5         -2.6790   -2.0961   -7.8479 ca      2  DGE        0.0750
     43 C6         -3.6330   -1.4921   -7.0199 ca      2  DGE       -0.0315
     44 C7         -3.7740   -1.8971   -5.6859 ca      2  DGE       -0.0556
     45 C8         -1.9910   -3.5031   -5.9809 ca      2  DGE       -0.0556
     46 C9         -2.9580   -2.9151   -5.1399 ca      2  DGE       -0.0378
     47 C10        -3.0910   -3.4021   -3.6729 c3      2  DGE        0.0146
     48 C11        -1.8170   -3.1131   -2.8489 ca      2  DGE       -0.0378
     49 C12        -0.8710   -2.1491   -3.2689 ca      2  DGE       -0.0556
     50 C13         0.2610   -1.8591   -2.4819 ca      2  DGE       -0.0315
     51 C14         0.4580   -2.5061   -1.2509 ca      2  DGE        0.0750
     52 C15        -0.4890   -3.4521   -0.8179 ca      2  DGE       -0.0315
     53 C16        -1.6120   -3.7391   -1.6079 ca      2  DGE       -0.0556
     54 O           1.5610   -2.1591   -0.5089 os      2  DGE       -0.3434
     55 C17         1.8890   -2.7761    0.7551 c3      2  DGE        0.0805
     56 C3          3.1820   -2.1241    1.2991 c3      2  DGE        0.0903
     57 H           2.0430   -3.8571    0.6321 h1      2  DGE        0.0600
     58 H1          1.0740   -2.6071    1.4641 h1      2  DGE        0.0600
     59 C1          3.3880   -2.4331    2.7951 c3      2  DGE        0.0238
     60 H3          4.2980   -1.9551    3.1661 h1      2  DGE        0.0456
     61 H2          3.4660   -3.5131    2.9571 h1      2  DGE        0.0456
     62 O1          4.3140   -2.5991    0.5691 oh      2  DGE       -0.3894
     63 H5          3.0910   -1.0351    1.1761 h1      2  DGE        0.0639
     64 O2         -2.5100   -1.7491   -9.1799 os      2  DGE       -0.3434
     65 C18        -3.2940   -0.7301   -9.8329 c3      2  DGE        0.0790
     66 C4         -2.8570   -0.6501  -11.3119 c3      2  DGE        0.0750
     67 H6         -3.1560    0.2419   -9.3479 h1      2  DGE        0.0600
     68 H7         -4.3620   -0.9941   -9.7819 h1      2  DGE        0.0600
     69 O3         -1.5330   -0.1281  -11.3889 oh      2  DGE       -0.3910
     70 C2         -3.8090    0.2469  -12.1299 c3      2  DGE       -0.0367
     71 H8         -2.8880   -1.6671  -11.7349 h1      2  DGE        0.0622
     72 H9         -4.8300   -0.1371  -12.1039 hc      2  DGE        0.0258
     73 H10        -3.4900    0.2869  -13.1779 hc      2  DGE        0.0258
     74 H11        -3.8220    1.2729  -11.7339 hc      2  DGE        0.0258
     75 H12        -4.2900   -0.7101   -7.4029 ha      2  DGE        0.0650
     76 H13        -1.1010   -3.5701   -7.9529 ha      2  DGE        0.0650
     77 H14        -1.3260   -4.2731   -5.5989 ha      2  DGE        0.0627
     78 H15        -4.5300   -1.3981   -5.0839 ha      2  DGE        0.0627
     79 H16        -0.9910   -1.6091   -4.1999 ha      2  DGE        0.0627
     80 H17         0.9810   -1.1191   -2.8159 ha      2  DGE        0.0650
     81 H18        -0.3710   -3.9571    0.1411 ha      2  DGE        0.0650
     82 H19        -2.3340   -4.4591   -1.2259 ha      2  DGE        0.0627
     83 H20        -0.9760   -0.6921  -10.8189 ho      2  DGE        0.2106
     84 H21         5.0730   -2.0221    0.7841 ho      2  DGE        0.2106
     85 C19        -3.3740   -4.9351   -3.7269 c3      2  DGE       -0.0517
     86 H22        -2.4980   -5.4941   -4.0599 hc      2  DGE        0.0243
     87 H23        -4.1980   -5.1501   -4.4279 hc      2  DGE        0.0243
     88 H24        -3.6810   -5.3321   -2.7519 hc      2  DGE        0.0243
     89 C20        -4.2820   -2.7411   -2.9349 c3      2  DGE       -0.0517
     90 H25        -4.1430   -1.6561   -2.8389 hc      2  DGE        0.0243
     91 H26        -4.3920   -3.1481   -1.9229 hc      2  DGE        0.0243
     92 H27        -5.2350   -2.9201   -3.4569 hc      2  DGE        0.0243
@<TRIPOS>BOND
     1     1     2    1
     2     2     3    1
     3     3     4    1
     4     4     5    1
     5     5     6    1
     6     1     6    1
     7     6     7    1
     8     7     8    1
     9     8     9    1
    10     9    10    1
    11    10    11    1
    12    11    12    1
    13    12    13    1
    14     8    13    1
    15    11    14    1
    16     3    15    1
    17     1    16    1
    18     1    17    1
    19     2    18    1
    20     2    19    1
    21     3    20    1
    22     4    21    1
    23     4    22    1
    24     5    23    1
    25     5    24    1
    26     6    25    1
    27     7    26    1
    28     7    27    1
    29     8    28    1
    30     9    29    1
    31     9    30    1
    32    10    31    1
    33    10    32    1
    34    11    33    1
    35    12    34    1
    36    12    35    1
    37    13    36    1
    38    13    37    1
    39    14    38    1
    40    14    39    1
    41    15    40    1
    42    41    42   ar
    43    42    43   ar
    44    43    44   ar
    45    41    45   ar
    46    45    46   ar
    47    46    44   ar
    48    46    47    1
    49    47    48    1
    50    48    49   ar
    51    49    50   ar
    52    50    51   ar
    53    51    52   ar
    54    52    53   ar
    55    48    53   ar
    56    51    54    1
    57    54    55    1
    58    55    56    1
    59    55    57    1
    60    55    58    1
    61    56    59    1
    62    59    60    1
    63    59    61    1
    64    56    62    1
    65    56    63    1
    66    42    64    1
    67    64    65    1
    68    65    66    1
    69    65    67    1
    70    65    68    1
    71    66    69    1
    72    66    70    1
    73    66    71    1
    74    70    72    1
    75    70    73    1
    76    70    74    1
    77    43    75    1
    78    41    76    1
    79    45    77    1
    80    44    78    1
    81    49    79    1
    82    50    80    1
    83    52    81    1
    84    53    82    1
    85    69    83    1
    86    62    84    1
    87    47    85    1
    88    85    86    1
    89    85    87    1
    90    85    88    1
    91    47    89    1
    92    89    90    1
    93    89    91    1
    94    89    92    1
    95    15    59    1
@<TRIPOS>SUBSTRUCTURE
     1 PAC          1 RESIDUE
     2 DGE          1 RESIDUE