@<TRIPOS>MOLECULE
PACDGE
    92    95  2  0  0
SMALL
gas

@<TRIPOS>ATOM
      1 C           0.0660    1.7238    4.1880 c3      1  PAC       -0.0490
      2 C3          0.3060    0.2238    4.4480 c3      1  PAC       -0.0375
      3 C1          1.4960   -0.3162    3.6180 c3      1  PAC        0.0068
      4 C4          2.7760    0.5238    3.8280 c3      1  PAC       -0.0375
      5 C5          2.5060    2.0338    3.5680 c3      1  PAC       -0.0490
      6 C6          1.3360    2.5938    4.4180 c3      1  PAC       -0.0411
      7 C7          1.6660    2.7238    5.9380 c3      1  PAC       -0.0476
      8 C8          2.7860    3.7438    6.3080 c3      1  PAC       -0.0411
      9 C9          2.4860    5.2038    5.8680 c3      1  PAC       -0.0490
     10 C10         1.3060    5.8338    6.6580 c3      1  PAC       -0.0377
     11 C2          1.5260    5.7738    8.1880 c3      1  PAC        0.0039
     12 C11         1.9260    4.3538    8.6680 c3      1  PAC       -0.0377
     13 C12         3.0660    3.7338    7.8280 c3      1  PAC       -0.0490
     14 N2          2.5460    6.7638    8.5880 n3      1  PAC       -0.3277
     15 N1          1.7460   -1.7262    3.9380 n3      1  PAC       -0.3113
     16 H          -0.7540    2.0838    4.8280 hc      1  PAC        0.0270
     17 H1         -0.2740    1.8538    3.1580 hc      1  PAC        0.0270
     18 H2         -0.6040   -0.3462    4.1980 hc      1  PAC        0.0283
     19 H3          0.4960    0.0538    5.5180 hc      1  PAC        0.0283
     20 H4          1.2160   -0.2562    2.5580 h1      1  PAC        0.0465
     21 H5          3.5660    0.1738    3.1580 hc      1  PAC        0.0283
     22 H6          3.1460    0.3838    4.8480 hc      1  PAC        0.0283
     23 H7          2.2660    2.1638    2.5080 hc      1  PAC        0.0270
     24 H8          3.4260    2.6038    3.7480 hc      1  PAC        0.0270
     25 H9          1.0860    3.5938    4.0280 hc      1  PAC        0.0303
     26 H10         1.9460    1.7438    6.3280 hc      1  PAC        0.0272
     27 H11         0.7460    3.0038    6.4580 hc      1  PAC        0.0272
     28 H12         3.7160    3.4338    5.8080 hc      1  PAC        0.0303
     29 H13         2.2860    5.2638    4.7880 hc      1  PAC        0.0270
     30 H14         3.3760    5.8138    6.0280 hc      1  PAC        0.0270
     31 H15         0.3760    5.2938    6.4080 hc      1  PAC        0.0283
     32 H16         1.1560    6.8638    6.3380 hc      1  PAC        0.0283
     33 H17         0.5860    6.0538    8.6780 h1      1  PAC        0.0462
     34 H18         1.0460    3.7038    8.6180 hc      1  PAC        0.0283
     35 H19         2.2160    4.3938    9.7280 hc      1  PAC        0.0283
     36 H20         3.2560    2.7038    8.1680 hc      1  PAC        0.0270
     37 H21         3.9960    4.2838    8.0280 hc      1  PAC        0.0270
     38 H22         3.4460    6.5038    8.1680 hn      1  PAC        0.1187
     39 H23         2.6760    6.7238    9.5980 hn      1  PAC        0.1187
     40 H24         2.0260   -1.8062    4.9180 hn      1  PAC        0.1226
     41 C          -1.8530   -3.0962   -7.3240 ca      2  DGE       -0.0315
     42 C5         -2.6790   -2.0962   -7.8480 ca      2  DGE        0.0750
     43 C6         -3.6330   -1.4922   -7.0200 ca      2  DGE       -0.0315
     44 C7         -3.7750   -1.8972   -5.6860 ca      2  DGE       -0.0556
     45 C8         -1.9910   -3.5032   -5.9810 ca      2  DGE       -0.0556
     46 C9         -2.9580   -2.9152   -5.1410 ca      2  DGE       -0.0378
     47 C10        -3.0910   -3.4022   -3.6730 c3      2  DGE        0.0146
     48 C11        -1.8170   -3.1132   -2.8490 ca      2  DGE       -0.0378
     49 C12        -0.8720   -2.1492   -3.2690 ca      2  DGE       -0.0556
     50 C13         0.2610   -1.8592   -2.4820 ca      2  DGE       -0.0315
     51 C14         0.4580   -2.5062   -1.2520 ca      2  DGE        0.0750
     52 C15        -0.4890   -3.4522   -0.8180 ca      2  DGE       -0.0315
     53 C16        -1.6120   -3.7392   -1.6080 ca      2  DGE       -0.0556
     54 O           1.5600   -2.1592   -0.5090 os      2  DGE       -0.3434
     55 C17         1.8890   -2.7762    0.7550 c3      2  DGE        0.0805
     56 C3          3.1820   -2.1242    1.2990 c3      2  DGE        0.0903
     57 H           2.0430   -3.8572    0.6320 h1      2  DGE        0.0600
     58 H1          1.0730   -2.6072    1.4640 h1      2  DGE        0.0600
     59 C1          3.3870   -2.4332    2.7950 c3      2  DGE        0.0238
     60 H3          4.2980   -1.9552    3.1660 h1      2  DGE        0.0456
     61 H2          3.4660   -3.5132    2.9570 h1      2  DGE        0.0456
     62 O1          4.3140   -2.5992    0.5690 oh      2  DGE       -0.3894
     63 H5          3.1000   -1.0322    1.1730 h1      2  DGE        0.0639
     64 O2         -2.5100   -1.7492   -9.1800 os      2  DGE       -0.3434
     65 C18        -3.2940   -0.7302   -9.8330 c3      2  DGE        0.0790
     66 C4         -2.8570   -0.6502  -11.3120 c3      2  DGE        0.0750
     67 H6         -3.1560    0.2418   -9.3480 h1      2  DGE        0.0600
     68 H7         -4.3620   -0.9942   -9.7820 h1      2  DGE        0.0600
     69 O3         -1.5330   -0.1282  -11.3900 oh      2  DGE       -0.3910
     70 C2         -3.8090    0.2468  -12.1300 c3      2  DGE       -0.0367
     71 H8         -2.8880   -1.6672  -11.7350 h1      2  DGE        0.0622
     72 H9         -4.8280   -0.1462  -12.1070 hc      2  DGE        0.0258
     73 H10        -3.4900    0.2868  -13.1780 hc      2  DGE        0.0258
     74 H11        -3.8220    1.2728  -11.7340 hc      2  DGE        0.0258
     75 H12        -4.2900   -0.7102   -7.4030 ha      2  DGE        0.0650
     76 H13        -1.1020   -3.5702   -7.9530 ha      2  DGE        0.0650
     77 H14        -1.3260   -4.2732   -5.5990 ha      2  DGE        0.0627
     78 H15        -4.5300   -1.3982   -5.0840 ha      2  DGE        0.0627
     79 H16        -0.9930   -1.6002   -4.1980 ha      2  DGE        0.0627
     80 H17         0.9810   -1.1192   -2.8160 ha      2  DGE        0.0650
     81 H18        -0.3710   -3.9572    0.1410 ha      2  DGE        0.0650
     82 H19        -2.3350   -4.4592   -1.2260 ha      2  DGE        0.0627
     83 H20        -0.9760   -0.6922  -10.8190 ho      2  DGE        0.2106
     84 H21         5.0730   -2.0222    0.7840 ho      2  DGE        0.2106
     85 C19        -3.3740   -4.9352   -3.7270 c3      2  DGE       -0.0517
     86 H22        -2.4950   -5.4952   -4.0500 hc      2  DGE        0.0243
     87 H23        -4.1980   -5.1502   -4.4280 hc      2  DGE        0.0243
     88 H24        -3.6810   -5.3322   -2.7520 hc      2  DGE        0.0243
     89 C20        -4.2820   -2.7412   -2.9350 c3      2  DGE       -0.0517
     90 H25        -4.1430   -1.6562   -2.8390 hc      2  DGE        0.0243
     91 H26        -4.3920   -3.1482   -1.9240 hc      2  DGE        0.0243
     92 H27        -5.2350   -2.9202   -3.4570 hc      2  DGE        0.0243
@<TRIPOS>BOND
     1     1     2    1
     2     2     3    1
     3     3     4    1
     4     4     5    1
     5     5     6    1
     6     1     6    1
     7     6     7    1
     8     7     8    1
     9     8     9    1
    10     9    10    1
    11    10    11    1
    12    11    12    1
    13    12    13    1
    14     8    13    1
    15    11    14    1
    16     3    15    1
    17     1    16    1
    18     1    17    1
    19     2    18    1
    20     2    19    1
    21     3    20    1
    22     4    21    1
    23     4    22    1
    24     5    23    1
    25     5    24    1
    26     6    25    1
    27     7    26    1
    28     7    27    1
    29     8    28    1
    30     9    29    1
    31     9    30    1
    32    10    31    1
    33    10    32    1
    34    11    33    1
    35    12    34    1
    36    12    35    1
    37    13    36    1
    38    13    37    1
    39    14    38    1
    40    14    39    1
    41    15    40    1
    42    41    42   ar
    43    42    43   ar
    44    43    44   ar
    45    41    45   ar
    46    45    46   ar
    47    46    44   ar
    48    46    47    1
    49    47    48    1
    50    48    49   ar
    51    49    50   ar
    52    50    51   ar
    53    51    52   ar
    54    52    53   ar
    55    48    53   ar
    56    51    54    1
    57    54    55    1
    58    55    56    1
    59    55    57    1
    60    55    58    1
    61    56    59    1
    62    59    60    1
    63    59    61    1
    64    56    62    1
    65    56    63    1
    66    42    64    1
    67    64    65    1
    68    65    66    1
    69    65    67    1
    70    65    68    1
    71    66    69    1
    72    66    70    1
    73    66    71    1
    74    70    72    1
    75    70    73    1
    76    70    74    1
    77    43    75    1
    78    41    76    1
    79    45    77    1
    80    44    78    1
    81    49    79    1
    82    50    80    1
    83    52    81    1
    84    53    82    1
    85    69    83    1
    86    62    84    1
    87    47    85    1
    88    85    86    1
    89    85    87    1
    90    85    88    1
    91    47    89    1
    92    89    90    1
    93    89    91    1
    94    89    92    1
    95    15    59    1
@<TRIPOS>SUBSTRUCTURE
     1 PAC          1 RESIDUE
     2 DGE          1 RESIDUE