@<TRIPOS>MOLECULE
PACDGE2-1
   143   148  3  0  0
SMALL
gas

@<TRIPOS>ATOM
      1 C          -4.0158   -0.1418    0.3552 c3      1  PAC       -0.0490
      2 C3         -3.6458   -1.6318    0.5352 c3      1  PAC       -0.0375
      3 C1         -2.4358   -2.0318   -0.3248 c3      1  PAC        0.0068
      4 C4         -1.2258   -1.0918   -0.0548 c3      1  PAC       -0.0375
      5 C5         -1.6158    0.3882   -0.2648 c3      1  PAC       -0.0490
      6 C6         -2.8258    0.8182    0.6052 c3      1  PAC       -0.0411
      7 C7         -2.4958    0.9382    2.1252 c3      1  PAC       -0.0476
      8 C8         -1.3758    1.9682    2.5052 c3      1  PAC       -0.0411
      9 C9         -1.6758    3.4182    2.0552 c3      1  PAC       -0.0490
     10 C10        -2.8358    4.0682    2.8452 c3      1  PAC       -0.0375
     11 C2         -2.6058    4.0282    4.3752 c3      1  PAC        0.0068
     12 C11        -2.2458    2.5982    4.8652 c3      1  PAC       -0.0375
     13 C12        -1.1058    1.9482    4.0352 c3      1  PAC       -0.0490
     14 N2         -1.5558    4.9782    4.7552 n3      1  PAC       -0.3113
     15 N1         -2.1058   -3.4618   -0.1048 n3      1  PAC       -0.3113
     16 H          -4.8558    0.1182    1.0252 hc      1  PAC        0.0270
     17 H1         -4.3858    0.0082   -0.6648 hc      1  PAC        0.0270
     18 H2         -4.5158   -2.2518    0.2652 hc      1  PAC        0.0283
     19 H3         -3.4358   -1.8318    1.5952 hc      1  PAC        0.0283
     20 H4         -2.7258   -1.9018   -1.3748 h1      1  PAC        0.0465
     21 H5         -0.3958   -1.3318   -0.7348 hc      1  PAC        0.0283
     22 H6         -0.8558   -1.2418    0.9652 hc      1  PAC        0.0283
     23 H7         -1.8758    0.5282   -1.3248 hc      1  PAC        0.0270
     24 H8         -0.7458    1.0282   -0.0848 hc      1  PAC        0.0270
     25 H9         -3.1558    1.8082    0.2552 hc      1  PAC        0.0303
     26 H10        -2.2058   -0.0418    2.5052 hc      1  PAC        0.0272
     27 H11        -3.4158    1.1982    2.6452 hc      1  PAC        0.0272
     28 H12        -0.4458    1.6482    2.0252 hc      1  PAC        0.0303
     29 H13        -1.8858    3.4682    0.9752 hc      1  PAC        0.0270
     30 H14        -0.7658    4.0282    2.2052 hc      1  PAC        0.0270
     31 H15        -3.7758    3.5482    2.6052 hc      1  PAC        0.0283
     32 H16        -2.9758    5.1082    2.5152 hc      1  PAC        0.0283
     33 H17        -3.5358    4.3382    4.8652 h1      1  PAC        0.0465
     34 H18        -3.1458    1.9682    4.8052 hc      1  PAC        0.0283
     35 H19        -1.9658    2.6282    5.9252 hc      1  PAC        0.0283
     36 H20        -0.9458    0.9182    4.3852 hc      1  PAC        0.0270
     37 H21        -0.1758    2.4882    4.2352 hc      1  PAC        0.0270
     38 H22        -0.6758    4.6982    4.3352 hn      1  PAC        0.1226
     39 H24        -1.9458   -3.6118    0.8952 hn      1  PAC        0.1226
     40 C          -5.9958   -4.8518  -11.1348 ca      2  DGE       -0.0315
     41 C5         -6.8158   -3.8518  -11.6648 ca      2  DGE        0.0750
     42 C6         -7.7858   -3.2418  -10.8448 ca      2  DGE       -0.0315
     43 C7         -7.9258   -3.6418   -9.5048 ca      2  DGE       -0.0556
     44 C8         -6.1358   -5.2518   -9.7948 ca      2  DGE       -0.0556
     45 C9         -7.1158   -4.6618   -8.9548 ca      2  DGE       -0.0378
     46 C10        -7.2558   -5.1618   -7.4948 c3      2  DGE        0.0146
     47 C11        -5.9858   -4.8718   -6.6648 ca      2  DGE       -0.0378
     48 C12        -5.0458   -3.8818   -7.0548 ca      2  DGE       -0.0556
     49 C13        -3.9258   -3.6018   -6.2648 ca      2  DGE       -0.0315
     50 C14        -3.7158   -4.2818   -5.0548 ca      2  DGE        0.0750
     51 C15        -4.6458   -5.2518   -4.6448 ca      2  DGE       -0.0315
     52 C16        -5.7658   -5.5418   -5.4448 ca      2  DGE       -0.0556
     53 O          -2.6158   -3.9418   -4.2948 os      2  DGE       -0.3434
     54 C17        -2.3458   -4.5218   -3.0048 c3      2  DGE        0.0805
     55 C3         -1.0858   -3.8518   -2.4048 c3      2  DGE        0.0903
     56 H          -2.1858   -5.6018   -3.0848 h1      2  DGE        0.0600
     57 H1         -3.2058   -4.3418   -2.3448 h1      2  DGE        0.0600
     58 C1         -0.9858   -4.0418   -0.8748 c3      2  DGE        0.0238
     59 H3         -0.0458   -3.6118   -0.5248 h1      2  DGE        0.0456
     60 H2         -0.9458   -5.1218   -0.6648 h1      2  DGE        0.0456
     61 O1          0.0842   -4.4018   -3.0148 oh      2  DGE       -0.3894
     62 H5         -1.1358   -2.7718   -2.6248 h1      2  DGE        0.0639
     63 O2         -6.6458   -3.5018  -12.9948 os      2  DGE       -0.3434
     64 C18        -7.4358   -2.4918  -13.6448 c3      2  DGE        0.0790
     65 C4         -6.9858   -2.4018  -15.1248 c3      2  DGE        0.0750
     66 H6         -7.2958   -1.5118  -13.1548 h1      2  DGE        0.0600
     67 H7         -8.4958   -2.7618  -13.6048 h1      2  DGE        0.0600
     68 O3         -5.6658   -1.8718  -15.1948 oh      2  DGE       -0.3910
     69 C2         -7.9358   -1.5118  -15.9448 c3      2  DGE       -0.0367
     70 H8         -7.0058   -3.4118  -15.5448 h1      2  DGE        0.0622
     71 H9         -8.9658   -1.9118  -15.9248 hc      2  DGE        0.0258
     72 H10        -7.6158   -1.4718  -16.9948 hc      2  DGE        0.0258
     73 H11        -7.9658   -0.4918  -15.5548 hc      2  DGE        0.0258
     74 H12        -8.4258   -2.4618  -11.2248 ha      2  DGE        0.0650
     75 H13        -5.2458   -5.3218  -11.7548 ha      2  DGE        0.0650
     76 H14        -5.4758   -6.0218   -9.4048 ha      2  DGE        0.0627
     77 H15        -8.6858   -3.1518   -8.9048 ha      2  DGE        0.0627
     78 H16        -5.1858   -3.3118   -7.9648 ha      2  DGE        0.0627
     79 H17        -3.2158   -2.8418   -6.5748 ha      2  DGE        0.0650
     80 H18        -4.5158   -5.7918   -3.7048 ha      2  DGE        0.0650
     81 H19        -6.4758   -6.2818   -5.0848 ha      2  DGE        0.0627
     82 H20        -5.1158   -2.4218  -14.6248 ho      2  DGE        0.2106
     83 H21         0.8242   -3.7918   -2.8348 ho      2  DGE        0.2106
     84 C19        -7.5558   -6.6818   -7.5548 c3      2  DGE       -0.0517
     85 H22        -6.6658   -7.2518   -7.8648 hc      2  DGE        0.0243
     86 H23        -8.3558   -6.8918   -8.2648 hc      2  DGE        0.0243
     87 H24        -7.8758   -7.0818   -6.5848 hc      2  DGE        0.0243
     88 C20        -8.4458   -4.4918   -6.7548 c3      2  DGE       -0.0517
     89 H25        -8.2958   -3.4118   -6.6548 hc      2  DGE        0.0243
     90 H26        -8.5558   -4.8918   -5.7348 hc      2  DGE        0.0243
     91 H27        -9.3958   -4.6618   -7.2748 hc      2  DGE        0.0243
     92 C           4.8792    5.3962    6.5352 ca      3  DGE       -0.0315
     93 C5          3.7072    4.6812    6.2662 ca      3  DGE        0.0750
     94 C6          3.7792    3.5042    5.5132 ca      3  DGE       -0.0315
     95 C7          5.0092    3.0542    5.0142 ca      3  DGE       -0.0556
     96 C8          6.1192    4.9432    6.0372 ca      3  DGE       -0.0556
     97 C9          6.2042    3.7682    5.2632 ca      3  DGE       -0.0378
     98 C10         7.5842    3.3122    4.7192 c3      3  DGE        0.0146
     99 C11         8.5642    2.9492    5.8562 ca      3  DGE       -0.0378
    100 C12         8.1032    2.6532    7.1592 ca      3  DGE       -0.0556
    101 C13         9.0042    2.2742    8.1742 ca      3  DGE       -0.0315
    102 C14        10.3762    2.1592    7.9022 ca      3  DGE        0.0750
    103 C15        10.8412    2.4332    6.6032 ca      3  DGE       -0.0315
    104 C16         9.9392    2.8142    5.5982 ca      3  DGE       -0.0556
    105 O          11.2052    1.7522    8.9202 os      3  DGE       -0.3434
    106 C17        12.6362    1.6272    8.7742 c3      3  DGE        0.0790
    107 C3         13.2262    1.1352   10.1162 c3      3  DGE        0.0750
    108 H          13.0852    2.5942    8.5052 h1      3  DGE        0.0600
    109 H1         12.8592    0.8972    7.9922 h1      3  DGE        0.0600
    110 C1         14.6642    0.6072    9.9442 c3      3  DGE       -0.0367
    111 H2         14.6892   -0.2258    9.2262 hc      3  DGE        0.0258
    112 H3         15.0622    0.2522   10.8982 hc      3  DGE        0.0258
    113 H4         15.3192    1.3962    9.5622 hc      3  DGE        0.0258
    114 O1         13.2362    2.2012   11.0672 oh      3  DGE       -0.3910
    115 H5         12.5942    0.3162   10.4952 h1      3  DGE        0.0622
    116 O2          2.5152    5.1832    6.7672 os      3  DGE       -0.3434
    117 C18         1.2422    4.5352    6.5642 c3      3  DGE        0.0805
    118 C4          0.1442    5.3972    7.2242 c3      3  DGE        0.0903
    119 H6          1.2402    3.5292    6.9972 h1      3  DGE        0.0600
    120 H7          1.0382    4.4472    5.4852 h1      3  DGE        0.0600
    121 O3          0.2962    5.3592    8.6402 oh      3  DGE       -0.3894
    122 C2         -1.2658    4.8962    6.8472 c3      3  DGE        0.0238
    123 H8          0.2542    6.4322    6.8602 h1      3  DGE        0.0639
    124 H10        -2.0328    5.5232    7.3162 h1      3  DGE        0.0456
    125 H11        -1.4158    3.8582    7.1792 h1      3  DGE        0.0456
    126 H12         2.8812    2.9272    5.2882 ha      3  DGE        0.0650
    127 H13         4.8402    6.3082    7.1262 ha      3  DGE        0.0650
    128 H14         7.0132    5.5122    6.2742 ha      3  DGE        0.0627
    129 H15         5.0132    2.1342    4.4332 ha      3  DGE        0.0627
    130 H16         7.0482    2.6982    7.4132 ha      3  DGE        0.0627
    131 H17         8.6382    2.0522    9.1722 ha      3  DGE        0.0650
    132 H18        11.8992    2.3352    6.3592 ha      3  DGE        0.0650
    133 H19        10.3342    2.9942    4.5992 ha      3  DGE        0.0627
    134 H20         1.2142    5.6332    8.8312 ho      3  DGE        0.2106
    135 H21        13.4082    1.8152   11.9492 ho      3  DGE        0.2106
    136 C19         8.1472    4.4902    3.8642 c3      3  DGE       -0.0517
    137 H22         8.4422    5.3352    4.4882 hc      3  DGE        0.0243
    138 H23         7.3882    4.8392    3.1442 hc      3  DGE        0.0243
    139 H24         9.0222    4.1902    3.2752 hc      3  DGE        0.0243
    140 C20         7.4762    2.0802    3.7872 c3      3  DGE       -0.0517
    141 H25         7.1042    1.1992    4.3272 hc      3  DGE        0.0243
    142 H26         8.4542    1.8172    3.3672 hc      3  DGE        0.0243
    143 H27         6.8032    2.2692    2.9362 hc      3  DGE        0.0243
@<TRIPOS>BOND
     1     1     2    1
     2     2     3    1
     3     3     4    1
     4     4     5    1
     5     5     6    1
     6     1     6    1
     7     6     7    1
     8     7     8    1
     9     8     9    1
    10     9    10    1
    11    10    11    1
    12    11    12    1
    13    12    13    1
    14     8    13    1
    15    11    14    1
    16     3    15    1
    17     1    16    1
    18     1    17    1
    19     2    18    1
    20     2    19    1
    21     3    20    1
    22     4    21    1
    23     4    22    1
    24     5    23    1
    25     5    24    1
    26     6    25    1
    27     7    26    1
    28     7    27    1
    29     8    28    1
    30     9    29    1
    31     9    30    1
    32    10    31    1
    33    10    32    1
    34    11    33    1
    35    12    34    1
    36    12    35    1
    37    13    36    1
    38    13    37    1
    39    14    38    1
    40    15    39    1
    41    40    41   ar
    42    41    42   ar
    43    42    43   ar
    44    40    44   ar
    45    44    45   ar
    46    45    43   ar
    47    45    46    1
    48    46    47    1
    49    47    48   ar
    50    48    49   ar
    51    49    50   ar
    52    50    51   ar
    53    51    52   ar
    54    47    52   ar
    55    50    53    1
    56    53    54    1
    57    54    55    1
    58    54    56    1
    59    54    57    1
    60    55    58    1
    61    58    59    1
    62    58    60    1
    63    55    61    1
    64    55    62    1
    65    41    63    1
    66    63    64    1
    67    64    65    1
    68    64    66    1
    69    64    67    1
    70    65    68    1
    71    65    69    1
    72    65    70    1
    73    69    71    1
    74    69    72    1
    75    69    73    1
    76    42    74    1
    77    40    75    1
    78    44    76    1
    79    43    77    1
    80    48    78    1
    81    49    79    1
    82    51    80    1
    83    52    81    1
    84    68    82    1
    85    61    83    1
    86    46    84    1
    87    84    85    1
    88    84    86    1
    89    84    87    1
    90    46    88    1
    91    88    89    1
    92    88    90    1
    93    88    91    1
    94    15    58    1
    95    92    93   ar
    96    93    94   ar
    97    94    95   ar
    98    92    96   ar
    99    96    97   ar
   100    97    95   ar
   101    97    98    1
   102    98    99    1
   103    99   100   ar
   104   100   101   ar
   105   101   102   ar
   106   102   103   ar
   107   103   104   ar
   108    99   104   ar
   109   102   105    1
   110   105   106    1
   111   106   107    1
   112   106   108    1
   113   106   109    1
   114   107   110    1
   115   110   111    1
   116   110   112    1
   117   110   113    1
   118   107   114    1
   119   107   115    1
   120    93   116    1
   121   116   117    1
   122   117   118    1
   123   117   119    1
   124   117   120    1
   125   118   121    1
   126   118   122    1
   127   118   123    1
   128   122   124    1
   129   122   125    1
   130    94   126    1
   131    92   127    1
   132    96   128    1
   133    95   129    1
   134   100   130    1
   135   101   131    1
   136   103   132    1
   137   104   133    1
   138   121   134    1
   139   114   135    1
   140    98   136    1
   141   136   137    1
   142   136   138    1
   143   136   139    1
   144    98   140    1
   145   140   141    1
   146   140   142    1
   147   140   143    1
   148    14   122    1
@<TRIPOS>SUBSTRUCTURE
     1 PAC          1 RESIDUE
     2 DGE          1 RESIDUE
     3 DGE          1 RESIDUE