@<TRIPOS>MOLECULE
PACDGE-3
    92    95  2  0  0
SMALL
gas

@<TRIPOS>ATOM
      1 C          -2.2071    6.6091   -0.9468 c3      1  PAC       -0.0490
      2 C3         -1.9671    5.1091   -0.6868 c3      1  PAC       -0.0375
      3 C1         -0.7771    4.5691   -1.5168 c3      1  PAC        0.0068
      4 C4          0.5029    5.4091   -1.3068 c3      1  PAC       -0.0375
      5 C5          0.2329    6.9191   -1.5668 c3      1  PAC       -0.0490
      6 C6         -0.9371    7.4791   -0.7168 c3      1  PAC       -0.0411
      7 C7         -0.6071    7.6091    0.8032 c3      1  PAC       -0.0476
      8 C8          0.5129    8.6291    1.1732 c3      1  PAC       -0.0411
      9 C9          0.2129   10.0891    0.7332 c3      1  PAC       -0.0490
     10 C10        -0.9671   10.7191    1.5232 c3      1  PAC       -0.0377
     11 C2         -0.7471   10.6591    3.0532 c3      1  PAC        0.0039
     12 C11        -0.3471    9.2391    3.5332 c3      1  PAC       -0.0377
     13 C12         0.7929    8.6191    2.6932 c3      1  PAC       -0.0490
     14 N2          0.2729   11.6491    3.4532 n3      1  PAC       -0.3277
     15 N1         -0.5271    3.1591   -1.1968 n3      1  PAC       -0.3113
     16 H          -3.0271    6.9691   -0.3068 hc      1  PAC        0.0270
     17 H1         -2.5471    6.7391   -1.9768 hc      1  PAC        0.0270
     18 H2         -2.8771    4.5391   -0.9368 hc      1  PAC        0.0283
     19 H3         -1.7771    4.9391    0.3832 hc      1  PAC        0.0283
     20 H4         -1.0571    4.6291   -2.5768 h1      1  PAC        0.0465
     21 H5          1.2929    5.0591   -1.9768 hc      1  PAC        0.0283
     22 H6          0.8729    5.2691   -0.2868 hc      1  PAC        0.0283
     23 H7         -0.0071    7.0491   -2.6268 hc      1  PAC        0.0270
     24 H8          1.1529    7.4891   -1.3868 hc      1  PAC        0.0270
     25 H9         -1.1871    8.4791   -1.1068 hc      1  PAC        0.0303
     26 H10        -0.3271    6.6291    1.1932 hc      1  PAC        0.0272
     27 H11        -1.5271    7.8891    1.3232 hc      1  PAC        0.0272
     28 H12         1.4429    8.3191    0.6732 hc      1  PAC        0.0303
     29 H13         0.0129   10.1491   -0.3468 hc      1  PAC        0.0270
     30 H14         1.1029   10.6991    0.8932 hc      1  PAC        0.0270
     31 H15        -1.8971   10.1791    1.2732 hc      1  PAC        0.0283
     32 H16        -1.1171   11.7491    1.2032 hc      1  PAC        0.0283
     33 H17        -1.6871   10.9391    3.5432 h1      1  PAC        0.0462
     34 H18        -1.2271    8.5891    3.4832 hc      1  PAC        0.0283
     35 H19        -0.0571    9.2791    4.5932 hc      1  PAC        0.0283
     36 H20         0.9829    7.5891    3.0332 hc      1  PAC        0.0270
     37 H21         1.7229    9.1691    2.8932 hc      1  PAC        0.0270
     38 H22         1.1729   11.3891    3.0332 hn      1  PAC        0.1187
     39 H23         0.4029   11.6091    4.4632 hn      1  PAC        0.1187
     40 H24        -0.2471    3.0791   -0.2168 hn      1  PAC        0.1226
     41 C          -0.7021   -3.4459   -2.2418 ca      2  DGE       -0.0315
     42 C5         -0.2551   -2.3039   -1.5668 ca      2  DGE        0.0750
     43 C6         -0.1811   -2.3209   -0.1688 ca      2  DGE       -0.0315
     44 C7         -0.5671   -3.4599    0.5502 ca      2  DGE       -0.0556
     45 C8         -1.0881   -4.5939   -1.5208 ca      2  DGE       -0.0556
     46 C9         -1.0341   -4.6199   -0.1118 ca      2  DGE       -0.0378
     47 C10        -1.4831   -5.8969    0.6452 c3      2  DGE        0.0146
     48 C11        -0.5801   -7.1079    0.3272 ca      2  DGE       -0.0378
     49 C12         0.7139   -6.9389   -0.2168 ca      2  DGE       -0.0556
     50 C13         1.5459   -8.0509   -0.4558 ca      2  DGE       -0.0315
     51 C14         1.1149   -9.3469   -0.1328 ca      2  DGE        0.0750
     52 C15        -0.1641   -9.5209    0.4272 ca      2  DGE       -0.0315
     53 C16        -0.9901   -8.4109    0.6582 ca      2  DGE       -0.0556
     54 O           1.9809  -10.3899   -0.3548 os      2  DGE       -0.3434
     55 C17         1.6409  -11.7689   -0.0948 c3      2  DGE        0.0790
     56 C3          2.8609  -12.6519   -0.4488 c3      2  DGE        0.0750
     57 H           0.7749  -12.0769   -0.6978 h1      2  DGE        0.0600
     58 H1          1.4029  -11.8909    0.9652 h1      2  DGE        0.0600
     59 C1          2.7339  -14.0649    0.1542 c3      2  DGE       -0.0367
     60 H2          2.6469  -14.0139    1.2492 hc      2  DGE        0.0258
     61 H3          3.6089  -14.6699   -0.0948 hc      2  DGE        0.0258
     62 H4          1.8389  -14.5659   -0.2288 hc      2  DGE        0.0258
     63 O1          2.9889  -12.7629   -1.8668 oh      2  DGE       -0.3910
     64 H5          3.7659  -12.1739   -0.0378 h1      2  DGE        0.0622
     65 O2          0.0949   -1.1989   -2.3258 os      2  DGE       -0.3434
     66 C18         0.5749    0.0331   -1.7488 c3      2  DGE        0.0805
     67 C4          0.8219    1.0441   -2.8888 c3      2  DGE        0.0903
     68 H6          1.4999   -0.1319   -1.1868 h1      2  DGE        0.0600
     69 H7         -0.1821    0.4381   -1.0588 h1      2  DGE        0.0600
     70 O3          1.9279    0.6121   -3.6768 oh      2  DGE       -0.3894
     71 C2          1.1079    2.4551   -2.3348 c3      2  DGE        0.0238
     72 H8         -0.0881    1.0911   -3.5098 h1      2  DGE        0.0639
     73 H10         1.2729    3.1621   -3.1568 h1      2  DGE        0.0456
     74 H11         2.0029    2.4531   -1.6968 h1      2  DGE        0.0456
     75 H12         0.1629   -1.4449    0.3842 ha      2  DGE        0.0650
     76 H13        -0.7571   -3.4509   -3.3288 ha      2  DGE        0.0650
     77 H14        -1.4171   -5.4699   -2.0738 ha      2  DGE        0.0627
     78 H15        -0.4921   -3.4229    1.6342 ha      2  DGE        0.0627
     79 H16         1.1059   -5.9549   -0.4568 ha      2  DGE        0.0627
     80 H17         2.5369   -7.9079   -0.8768 ha      2  DGE        0.0650
     81 H18        -0.5191  -10.5139    0.7032 ha      2  DGE        0.0650
     82 H19        -1.9631   -8.5849    1.1152 ha      2  DGE        0.0627
     83 H20         1.7289   -0.3009   -3.9628 ho      2  DGE        0.2106
     84 H21         3.8719  -13.1369   -2.0598 ho      2  DGE        0.2106
     85 C19        -2.9571   -6.1819    0.2192 c3      2  DGE       -0.0517
     86 H22        -3.0171   -6.5259   -0.8148 hc      2  DGE        0.0243
     87 H23        -3.5691   -5.2709    0.3172 hc      2  DGE        0.0243
     88 H24        -3.4281   -6.9449    0.8512 hc      2  DGE        0.0243
     89 C20        -1.4801   -5.7049    2.1832 c3      2  DGE       -0.0517
     90 H25        -0.4661   -5.5189    2.5622 hc      2  DGE        0.0243
     91 H26        -1.8611   -6.5979    2.6912 hc      2  DGE        0.0243
     92 H27        -2.1201   -4.8649    2.4912 hc      2  DGE        0.0243
@<TRIPOS>BOND
     1     1     2    1
     2     2     3    1
     3     3     4    1
     4     4     5    1
     5     5     6    1
     6     1     6    1
     7     6     7    1
     8     7     8    1
     9     8     9    1
    10     9    10    1
    11    10    11    1
    12    11    12    1
    13    12    13    1
    14     8    13    1
    15    11    14    1
    16     3    15    1
    17     1    16    1
    18     1    17    1
    19     2    18    1
    20     2    19    1
    21     3    20    1
    22     4    21    1
    23     4    22    1
    24     5    23    1
    25     5    24    1
    26     6    25    1
    27     7    26    1
    28     7    27    1
    29     8    28    1
    30     9    29    1
    31     9    30    1
    32    10    31    1
    33    10    32    1
    34    11    33    1
    35    12    34    1
    36    12    35    1
    37    13    36    1
    38    13    37    1
    39    14    38    1
    40    14    39    1
    41    15    40    1
    42    41    42   ar
    43    42    43   ar
    44    43    44   ar
    45    41    45   ar
    46    45    46   ar
    47    46    44   ar
    48    46    47    1
    49    47    48    1
    50    48    49   ar
    51    49    50   ar
    52    50    51   ar
    53    51    52   ar
    54    52    53   ar
    55    48    53   ar
    56    51    54    1
    57    54    55    1
    58    55    56    1
    59    55    57    1
    60    55    58    1
    61    56    59    1
    62    59    60    1
    63    59    61    1
    64    59    62    1
    65    56    63    1
    66    56    64    1
    67    42    65    1
    68    65    66    1
    69    66    67    1
    70    66    68    1
    71    66    69    1
    72    67    70    1
    73    67    71    1
    74    67    72    1
    75    71    73    1
    76    71    74    1
    77    43    75    1
    78    41    76    1
    79    45    77    1
    80    44    78    1
    81    49    79    1
    82    50    80    1
    83    52    81    1
    84    53    82    1
    85    70    83    1
    86    63    84    1
    87    47    85    1
    88    85    86    1
    89    85    87    1
    90    85    88    1
    91    47    89    1
    92    89    90    1
    93    89    91    1
    94    89    92    1
    95    15    71    1
@<TRIPOS>SUBSTRUCTURE
     1 PAC          1 RESIDUE
     2 DGE          1 RESIDUE