@<TRIPOS>MOLECULE
PACDGE-1
    92    95  2  0  0
SMALL
gas

@<TRIPOS>ATOM
      1 C          -5.5370   -4.3051   -7.9260 c3      1  PAC       -0.0490
      2 C3         -5.2970   -5.8051   -7.6670 c3      1  PAC       -0.0377
      3 C2         -4.1070   -6.3451   -8.4960 c3      1  PAC        0.0039
      4 C4         -2.8270   -5.5051   -8.2870 c3      1  PAC       -0.0377
      5 C5         -3.0970   -3.9951   -8.5460 c3      1  PAC       -0.0490
      6 C6         -4.2670   -3.4351   -7.6970 c3      1  PAC       -0.0411
      7 C7         -3.9370   -3.3051   -6.1760 c3      1  PAC       -0.0476
      8 C8         -2.8170   -2.2851   -5.8060 c3      1  PAC       -0.0411
      9 C9         -3.1170   -0.8251   -6.2470 c3      1  PAC       -0.0490
     10 C10        -4.2970   -0.1951   -5.4570 c3      1  PAC       -0.0375
     11 C1         -4.0770   -0.2551   -3.9260 c3      1  PAC        0.0068
     12 C11        -3.6770   -1.6751   -3.4460 c3      1  PAC       -0.0375
     13 C12        -2.5370   -2.2951   -4.2870 c3      1  PAC       -0.0490
     14 N1         -3.0570    0.7349   -3.5260 n3      1  PAC       -0.3113
     15 N2         -3.8570   -7.7551   -8.1770 n3      1  PAC       -0.3277
     16 H          -6.3570   -3.9451   -7.2870 hc      1  PAC        0.0270
     17 H1         -5.8770   -4.1751   -8.9570 hc      1  PAC        0.0270
     18 H2         -6.2070   -6.3751   -7.9170 hc      1  PAC        0.0283
     19 H3         -5.1070   -5.9751   -6.5960 hc      1  PAC        0.0283
     20 H4         -4.3870   -6.2851   -9.5560 h1      1  PAC        0.0462
     21 H5         -2.0370   -5.8551   -8.9570 hc      1  PAC        0.0283
     22 H6         -2.4570   -5.6451   -7.2660 hc      1  PAC        0.0283
     23 H7         -3.3370   -3.8651   -9.6070 hc      1  PAC        0.0270
     24 H8         -2.1770   -3.4251   -8.3670 hc      1  PAC        0.0270
     25 H9         -4.5170   -2.4351   -8.0860 hc      1  PAC        0.0303
     26 H10        -3.6570   -4.2851   -5.7870 hc      1  PAC        0.0272
     27 H11        -4.8570   -3.0251   -5.6570 hc      1  PAC        0.0272
     28 H12        -1.8870   -2.5951   -6.3060 hc      1  PAC        0.0303
     29 H13        -3.3170   -0.7651   -7.3270 hc      1  PAC        0.0270
     30 H14        -2.2270   -0.2151   -6.0870 hc      1  PAC        0.0270
     31 H15        -5.2270   -0.7351   -5.7070 hc      1  PAC        0.0283
     32 H16        -4.4470    0.8349   -5.7770 hc      1  PAC        0.0283
     33 H17        -5.0170    0.0249   -3.4370 h1      1  PAC        0.0465
     34 H18        -4.5570   -2.3251   -3.4970 hc      1  PAC        0.0283
     35 H19        -3.3870   -1.6351   -2.3860 hc      1  PAC        0.0283
     36 H20        -2.3470   -3.3251   -3.9460 hc      1  PAC        0.0270
     37 H21        -1.6070   -1.7451   -4.0870 hc      1  PAC        0.0270
     38 H22        -2.1570    0.4749   -3.9460 hn      1  PAC        0.1226
     39 H24        -3.5770   -7.8351   -7.1970 hn      1  PAC        0.1187
     40 H25        -3.0670   -8.0951   -8.7260 hn      1  PAC        0.1187
     41 C           2.2570    0.9629    2.1160 ca      2  DGE       -0.0315
     42 C5          0.8650    0.8819    1.9920 ca      2  DGE        0.0750
     43 C6          0.0830    0.7349    3.1440 ca      2  DGE       -0.0315
     44 C7          0.6860    0.6489    4.4070 ca      2  DGE       -0.0556
     45 C8          2.8650    0.8799    3.3850 ca      2  DGE       -0.0556
     46 C9          2.0910    0.7159    4.5520 ca      2  DGE       -0.0378
     47 C10         2.7990    0.6119    5.9290 c3      2  DGE        0.0146
     48 C11         3.5500    1.9109    6.2940 ca      2  DGE       -0.0378
     49 C12         3.2450    3.1399    5.6640 ca      2  DGE       -0.0556
     50 C13         3.9030    4.3269    6.0430 ca      2  DGE       -0.0315
     51 C14         4.8570    4.3159    7.0720 ca      2  DGE        0.0750
     52 C15         5.1520    3.0999    7.7160 ca      2  DGE       -0.0315
     53 C16         4.4970    1.9209    7.3320 ca      2  DGE       -0.0556
     54 O           5.4420    5.5079    7.4240 os      2  DGE       -0.3434
     55 C17         6.4600    5.6199    8.4420 c3      2  DGE        0.0790
     56 C3          6.8660    7.1069    8.5700 c3      2  DGE        0.0750
     57 H           7.3410    5.0169    8.1800 h1      2  DGE        0.0600
     58 H1          6.0570    5.2719    9.3970 h1      2  DGE        0.0600
     59 C1          7.6420    7.3729    9.8750 c3      2  DGE       -0.0367
     60 H2          7.0350    7.1009   10.7510 hc      2  DGE        0.0258
     61 H3          7.9100    8.4299    9.9550 hc      2  DGE        0.0258
     62 H4          8.5580    6.7749    9.9050 hc      2  DGE        0.0258
     63 O1          7.6810    7.4889    7.4610 oh      2  DGE       -0.3910
     64 H5          5.9460    7.7109    8.5810 h1      2  DGE        0.0622
     65 O2          0.3230    0.9519    0.7180 os      2  DGE       -0.3434
     66 C18        -1.0940    0.8869    0.4610 c3      2  DGE        0.0805
     67 C4         -1.3190    0.9529   -1.0650 c3      2  DGE        0.0903
     68 H6         -1.6200    1.7119    0.9540 h1      2  DGE        0.0600
     69 H7         -1.4980   -0.0621    0.8490 h1      2  DGE        0.0600
     70 O3         -0.9700    2.2509   -1.5410 oh      2  DGE       -0.3894
     71 C2         -2.7870    0.6519   -1.4300 c3      2  DGE        0.0238
     72 H8         -0.6780    0.1919   -1.5400 h1      2  DGE        0.0639
     73 H10        -3.0790   -0.3441   -1.0930 h1      2  DGE        0.0456
     74 H11        -3.4660    1.3809   -0.9650 h1      2  DGE        0.0456
     75 H12        -1.0040    0.6679    3.0780 ha      2  DGE        0.0650
     76 H13         2.8770    1.0849    1.2310 ha      2  DGE        0.0650
     77 H14         3.9470    0.9599    3.4500 ha      2  DGE        0.0627
     78 H15         0.0350    0.5339    5.2710 ha      2  DGE        0.0627
     79 H16         2.5010    3.2029    4.8790 ha      2  DGE        0.0627
     80 H17         3.6620    5.2639    5.5500 ha      2  DGE        0.0650
     81 H18         5.8770    3.0649    8.5310 ha      2  DGE        0.0650
     82 H19         4.7350    1.0049    7.8710 ha      2  DGE        0.0627
     83 H20        -0.0550    2.4209   -1.2440 ho      2  DGE        0.2106
     84 H21         7.7410    8.4649    7.4550 ho      2  DGE        0.2106
     85 C19         3.7910   -0.5891    5.8400 c3      2  DGE       -0.0517
     86 H22         4.6320   -0.3681    5.1830 hc      2  DGE        0.0243
     87 H23         3.2790   -1.4821    5.4440 hc      2  DGE        0.0243
     88 H24         4.1900   -0.8671    6.8230 hc      2  DGE        0.0243
     89 C20         1.8100    0.3059    7.0820 c3      2  DGE       -0.0517
     90 H25         1.0890    1.1229    7.2190 hc      2  DGE        0.0243
     91 H26         2.3420    0.1759    8.0310 hc      2  DGE        0.0243
     92 H27         1.2470   -0.6221    6.9010 hc      2  DGE        0.0243
@<TRIPOS>BOND
     1     1     2    1
     2     2     3    1
     3     3     4    1
     4     4     5    1
     5     5     6    1
     6     1     6    1
     7     6     7    1
     8     7     8    1
     9     8     9    1
    10     9    10    1
    11    10    11    1
    12    11    12    1
    13    12    13    1
    14     8    13    1
    15    11    14    1
    16     3    15    1
    17     1    16    1
    18     1    17    1
    19     2    18    1
    20     2    19    1
    21     3    20    1
    22     4    21    1
    23     4    22    1
    24     5    23    1
    25     5    24    1
    26     6    25    1
    27     7    26    1
    28     7    27    1
    29     8    28    1
    30     9    29    1
    31     9    30    1
    32    10    31    1
    33    10    32    1
    34    11    33    1
    35    12    34    1
    36    12    35    1
    37    13    36    1
    38    13    37    1
    39    14    38    1
    40    15    39    1
    41    15    40    1
    42    41    42   ar
    43    42    43   ar
    44    43    44   ar
    45    41    45   ar
    46    45    46   ar
    47    44    46   ar
    48    46    47    1
    49    47    48    1
    50    48    49   ar
    51    49    50   ar
    52    50    51   ar
    53    51    52   ar
    54    52    53   ar
    55    48    53   ar
    56    51    54    1
    57    54    55    1
    58    55    56    1
    59    55    57    1
    60    55    58    1
    61    56    59    1
    62    59    60    1
    63    59    61    1
    64    59    62    1
    65    56    63    1
    66    56    64    1
    67    42    65    1
    68    65    66    1
    69    66    67    1
    70    66    68    1
    71    66    69    1
    72    67    70    1
    73    67    71    1
    74    67    72    1
    75    71    73    1
    76    71    74    1
    77    43    75    1
    78    41    76    1
    79    45    77    1
    80    44    78    1
    81    49    79    1
    82    50    80    1
    83    52    81    1
    84    53    82    1
    85    70    83    1
    86    63    84    1
    87    47    85    1
    88    85    86    1
    89    85    87    1
    90    85    88    1
    91    47    89    1
    92    89    90    1
    93    89    91    1
    94    89    92    1
    95    14    71    1
@<TRIPOS>SUBSTRUCTURE
     1 PAC          1 RESIDUE
     2 DGE          1 RESIDUE
