@<TRIPOS>MOLECULE
PACDGE-3
    92    95  2  0  0
SMALL
gas

@<TRIPOS>ATOM
      1 C          -2.2440    6.6040   -0.9852 c3      1  PAC       -0.0490
      2 C3         -2.0050    5.1040   -0.7252 c3      1  PAC       -0.0375
      3 C2         -0.8150    4.5640   -1.5552 c3      1  PAC        0.0068
      4 C4          0.4660    5.4040   -1.3452 c3      1  PAC       -0.0375
      5 C5          0.1960    6.9140   -1.6052 c3      1  PAC       -0.0490
      6 C6         -0.9750    7.4740   -0.7552 c3      1  PAC       -0.0411
      7 C7         -0.6440    7.6040    0.7648 c3      1  PAC       -0.0476
      8 C8          0.4750    8.6240    1.1348 c3      1  PAC       -0.0411
      9 C9          0.1750   10.0840    0.6948 c3      1  PAC       -0.0490
     10 C10        -1.0040   10.7140    1.4848 c3      1  PAC       -0.0377
     11 C1         -0.7840   10.6540    3.0148 c3      1  PAC        0.0039
     12 C11        -0.3850    9.2340    3.4948 c3      1  PAC       -0.0377
     13 C12         0.7550    8.6140    2.6548 c3      1  PAC       -0.0490
     14 N1          0.2350   11.6440    3.4148 n3      1  PAC       -0.3277
     15 N2         -0.5650    3.1540   -1.2352 n3      1  PAC       -0.3113
     16 H          -3.0640    6.9640   -0.3452 hc      1  PAC        0.0270
     17 H1         -2.5840    6.7340   -2.0152 hc      1  PAC        0.0270
     18 H2         -2.9140    4.5340   -0.9752 hc      1  PAC        0.0283
     19 H3         -1.8150    4.9340    0.3448 hc      1  PAC        0.0283
     20 H4         -1.0950    4.6240   -2.6152 h1      1  PAC        0.0465
     21 H5          1.2560    5.0540   -2.0152 hc      1  PAC        0.0283
     22 H6          0.8360    5.2640   -0.3252 hc      1  PAC        0.0283
     23 H7         -0.0440    7.0440   -2.6652 hc      1  PAC        0.0270
     24 H8          1.1150    7.4840   -1.4252 hc      1  PAC        0.0270
     25 H9         -1.2240    8.4740   -1.1452 hc      1  PAC        0.0303
     26 H10        -0.3640    6.6240    1.1548 hc      1  PAC        0.0272
     27 H11        -1.5650    7.8840    1.2848 hc      1  PAC        0.0272
     28 H12         1.4050    8.3140    0.6348 hc      1  PAC        0.0303
     29 H13        -0.0250   10.1440   -0.3852 hc      1  PAC        0.0270
     30 H14         1.0650   10.6940    0.8548 hc      1  PAC        0.0270
     31 H15        -1.9350   10.1740    1.2348 hc      1  PAC        0.0283
     32 H16        -1.1550   11.7440    1.1648 hc      1  PAC        0.0283
     33 H17        -1.7240   10.9340    3.5048 h1      1  PAC        0.0462
     34 H18        -1.2640    8.5840    3.4448 hc      1  PAC        0.0283
     35 H19        -0.0950    9.2740    4.5548 hc      1  PAC        0.0283
     36 H20         0.9460    7.5840    2.9948 hc      1  PAC        0.0270
     37 H21         1.6850    9.1640    2.8548 hc      1  PAC        0.0270
     38 H22         1.1350   11.3840    2.9948 hn      1  PAC        0.1187
     39 H23         0.3650   11.6040    4.4248 hn      1  PAC        0.1187
     40 H24        -0.2840    3.0740   -0.2552 hn      1  PAC        0.1226
     41 C          -0.6870   -3.4660   -2.2392 ca      2  DGE       -0.0315
     42 C5         -0.2550   -2.3150   -1.5712 ca      2  DGE        0.0750
     43 C6         -0.1870   -2.3190   -0.1732 ca      2  DGE       -0.0315
     44 C7         -0.5670   -3.4550    0.5538 ca      2  DGE       -0.0556
     45 C8         -1.0670   -4.6120   -1.5102 ca      2  DGE       -0.0556
     46 C9         -1.0190   -4.6250   -0.1012 ca      2  DGE       -0.0378
     47 C10        -1.4620   -5.8990    0.6648 c3      2  DGE        0.0146
     48 C11        -0.5460   -7.1050    0.3608 ca      2  DGE       -0.0378
     49 C12         0.7490   -6.9290   -0.1782 ca      2  DGE       -0.0556
     50 C13         1.5930   -8.0350   -0.4032 ca      2  DGE       -0.0315
     51 C14         1.1710   -9.3320   -0.0722 ca      2  DGE        0.0750
     52 C15        -0.1090   -9.5140    0.4828 ca      2  DGE       -0.0315
     53 C16        -0.9460   -8.4090    0.7008 ca      2  DGE       -0.0556
     54 O           2.0470  -10.3700   -0.2802 os      2  DGE       -0.3434
     55 C17         1.7190  -11.7500   -0.0112 c3      2  DGE        0.0790
     56 C3          2.9490  -12.6240   -0.3512 c3      2  DGE        0.0750
     57 H           0.8590  -12.0700   -0.6152 h1      2  DGE        0.0600
     58 H1          1.4760  -11.8640    1.0488 h1      2  DGE        0.0600
     59 C1          2.8310  -14.0330    0.2628 c3      2  DGE       -0.0367
     60 H2          2.7380  -13.9730    1.3578 hc      2  DGE        0.0258
     61 H3          3.7130  -14.6320    0.0238 hc      2  DGE        0.0258
     62 H4          1.9430  -14.5450   -0.1202 hc      2  DGE        0.0258
     63 O1          3.0850  -12.7460   -1.7672 oh      2  DGE       -0.3910
     64 H5          3.8400  -12.1330    0.0668 h1      2  DGE        0.0622
     65 O2          0.0900   -1.2120   -2.3382 os      2  DGE       -0.3434
     66 C18         0.5550    0.0280   -1.7702 c3      2  DGE        0.0805
     67 C4          0.7990    1.0320   -2.9172 c3      2  DGE        0.0903
     68 H6          1.4790   -0.1240   -1.2012 h1      2  DGE        0.0600
     69 H7         -0.2080    0.4320   -1.0862 h1      2  DGE        0.0600
     70 O3          1.9130    0.6040   -3.6952 oh      2  DGE       -0.3894
     71 C2          1.0700    2.4500   -2.3732 c3      2  DGE        0.0238
     72 H8         -0.1080    1.0660   -3.5422 h1      2  DGE        0.0639
     73 H10         1.2320    3.1520   -3.2002 h1      2  DGE        0.0456
     74 H9          1.9620    2.4620   -1.7302 h1      2  DGE        0.0456
     75 H12         0.1460   -1.4350    0.3738 ha      2  DGE        0.0650
     76 H13        -0.7380   -3.4800   -3.3262 ha      2  DGE        0.0650
     77 H14        -1.3860   -5.4950   -2.0582 ha      2  DGE        0.0627
     78 H15        -0.4970   -3.4090    1.6378 ha      2  DGE        0.0627
     79 H16         1.1270   -5.9460   -0.4302 ha      2  DGE        0.0627
     80 H17         2.5840   -7.8870   -0.8212 ha      2  DGE        0.0650
     81 H18        -0.4560  -10.5070    0.7658 ha      2  DGE        0.0650
     82 H19        -1.9200   -8.5870    1.1548 ha      2  DGE        0.0627
     83 H20         1.7230   -0.3130   -3.9752 ho      2  DGE        0.2106
     84 H21         3.9720  -13.1130   -1.9532 ho      2  DGE        0.2106
     85 C19        -2.9300   -6.2020    0.2338 c3      2  DGE       -0.0517
     86 H22        -2.9830   -6.5450   -0.8002 hc      2  DGE        0.0243
     87 H23        -3.5520   -5.2950    0.3208 hc      2  DGE        0.0243
     88 H24        -3.3970   -6.9630    0.8698 hc      2  DGE        0.0243
     89 C20        -1.4680   -5.6950    2.2008 c3      2  DGE       -0.0517
     90 H25        -0.4570   -5.4970    2.5828 hc      2  DGE        0.0243
     91 H26        -1.8430   -6.5870    2.7138 hc      2  DGE        0.0243
     92 H27        -2.1170   -4.8570    2.4988 hc      2  DGE        0.0243
@<TRIPOS>BOND
     1     1     2    1
     2     2     3    1
     3     3     4    1
     4     4     5    1
     5     5     6    1
     6     1     6    1
     7     6     7    1
     8     7     8    1
     9     8     9    1
    10     9    10    1
    11    10    11    1
    12    11    12    1
    13    12    13    1
    14     8    13    1
    15    11    14    1
    16     3    15    1
    17     1    16    1
    18     1    17    1
    19     2    18    1
    20     2    19    1
    21     3    20    1
    22     4    21    1
    23     4    22    1
    24     5    23    1
    25     5    24    1
    26     6    25    1
    27     7    26    1
    28     7    27    1
    29     8    28    1
    30     9    29    1
    31     9    30    1
    32    10    31    1
    33    10    32    1
    34    11    33    1
    35    12    34    1
    36    12    35    1
    37    13    36    1
    38    13    37    1
    39    14    38    1
    40    14    39    1
    41    15    40    1
    42    41    42   ar
    43    42    43   ar
    44    43    44   ar
    45    41    45   ar
    46    45    46   ar
    47    44    46   ar
    48    46    47    1
    49    47    48    1
    50    48    49   ar
    51    49    50   ar
    52    50    51   ar
    53    51    52   ar
    54    52    53   ar
    55    48    53   ar
    56    51    54    1
    57    54    55    1
    58    55    56    1
    59    55    57    1
    60    55    58    1
    61    56    59    1
    62    59    60    1
    63    59    61    1
    64    59    62    1
    65    56    63    1
    66    56    64    1
    67    42    65    1
    68    65    66    1
    69    66    67    1
    70    66    68    1
    71    66    69    1
    72    67    70    1
    73    67    71    1
    74    67    72    1
    75    71    73    1
    76    71    74    1
    77    43    75    1
    78    41    76    1
    79    45    77    1
    80    44    78    1
    81    49    79    1
    82    50    80    1
    83    52    81    1
    84    53    82    1
    85    70    83    1
    86    63    84    1
    87    47    85    1
    88    85    86    1
    89    85    87    1
    90    85    88    1
    91    47    89    1
    92    89    90    1
    93    89    91    1
    94    89    92    1
    95    15    71    1
@<TRIPOS>SUBSTRUCTURE
     1 PAC          1 RESIDUE
     2 DGE          1 RESIDUE
