@<TRIPOS>MOLECULE
PACDGE2-2
   143   148  3  0  0
SMALL
gas

@<TRIPOS>ATOM
      1 C          -5.6667   -1.7110   -8.7671 c3      1  PAC       -0.0490
      2 C3         -5.4467   -3.2210   -8.5271 c3      1  PAC       -0.0377
      3 C2         -4.2067   -3.7610   -9.2871 c3      1  PAC        0.0039
      4 C4         -2.9467   -2.9110   -8.9971 c3      1  PAC       -0.0377
      5 C5         -3.1967   -1.4010   -9.2471 c3      1  PAC       -0.0490
      6 C6         -4.4067   -0.8510   -8.4371 c3      1  PAC       -0.0411
      7 C7         -4.1667   -0.7910   -6.8971 c3      1  PAC       -0.0476
      8 C8         -2.9867    0.0990   -6.4071 c3      1  PAC       -0.0411
      9 C9         -3.1667    1.6090   -6.7271 c3      1  PAC       -0.0489
     10 C10        -4.2467    2.2890   -5.8371 c3      1  PAC       -0.0373
     11 C1         -4.0167    2.0690   -4.3271 c3      1  PAC        0.0098
     12 C11        -3.8567    0.5490   -4.0271 c3      1  PAC       -0.0373
     13 C12        -2.7467   -0.1010   -4.8871 c3      1  PAC       -0.0489
     14 N1         -2.8467    2.8390   -3.8671 n3      1  PAC       -0.2951
     15 N2         -3.9667   -5.1610   -8.9471 n3      1  PAC       -0.3277
     16 H          -6.5167   -1.3610   -8.1671 hc      1  PAC        0.0270
     17 H1         -5.9367   -1.5510   -9.8171 hc      1  PAC        0.0270
     18 H2         -6.3367   -3.7710   -8.8471 hc      1  PAC        0.0283
     19 H3         -5.3367   -3.4210   -7.4471 hc      1  PAC        0.0283
     20 H4         -4.4167   -3.6910  -10.3571 h1      1  PAC        0.0462
     21 H5         -2.1167   -3.2510   -9.6371 hc      1  PAC        0.0283
     22 H6         -2.6167   -3.0610   -7.9571 hc      1  PAC        0.0283
     23 H7         -3.3967   -1.2610  -10.3171 hc      1  PAC        0.0270
     24 H8         -2.2867   -0.8310   -9.0371 hc      1  PAC        0.0270
     25 H9         -4.6067    0.1590   -8.7971 hc      1  PAC        0.0303
     26 H10        -3.9967   -1.8110   -6.5271 hc      1  PAC        0.0272
     27 H11        -5.0967   -0.4510   -6.4271 hc      1  PAC        0.0272
     28 H12        -2.0667   -0.2410   -6.9171 hc      1  PAC        0.0303
     29 H13        -3.3967    1.7690   -7.7771 hc      1  PAC        0.0270
     30 H14        -2.2067    2.1190   -6.5471 hc      1  PAC        0.0270
     31 H15        -5.2367    1.8990   -6.1171 hc      1  PAC        0.0283
     32 H16        -4.2667    3.3690   -6.0571 hc      1  PAC        0.0283
     33 H17        -4.9067    2.4390   -3.7971 h1      1  PAC        0.0467
     34 H18        -4.8167    0.0490   -4.2171 hc      1  PAC        0.0283
     35 H19        -3.6467    0.3690   -2.9671 hc      1  PAC        0.0283
     36 H20        -2.6767   -1.1710   -4.6571 hc      1  PAC        0.0270
     37 H21        -1.7767    0.3390   -4.6171 hc      1  PAC        0.0270
     38 H24        -3.7367   -5.2410   -7.9571 hn      1  PAC        0.1187
     39 H25        -3.1467   -5.5010   -9.4571 hn      1  PAC        0.1187
     40 C           2.1433    3.5690    1.2829 ca      2  DGE       -0.0315
     41 C5          0.7533    3.4990    1.1229 ca      2  DGE        0.0750
     42 C6         -0.0567    3.2990    2.2529 ca      2  DGE       -0.0315
     43 C7          0.5133    3.1690    3.5229 ca      2  DGE       -0.0556
     44 C8          2.7233    3.4390    2.5629 ca      2  DGE       -0.0556
     45 C9          1.9133    3.2390    3.7029 ca      2  DGE       -0.0378
     46 C10         2.5933    3.1090    5.0929 c3      2  DGE        0.0146
     47 C11         3.3433    4.3990    5.4729 ca      2  DGE       -0.0378
     48 C12         2.9833    5.6490    4.9229 ca      2  DGE       -0.0556
     49 C13         3.6533    6.8290    5.3029 ca      2  DGE       -0.0315
     50 C14         4.6733    6.7890    6.2629 ca      2  DGE        0.0750
     51 C15         5.0233    5.5590    6.8429 ca      2  DGE       -0.0315
     52 C16         4.3633    4.3790    6.4529 ca      2  DGE       -0.0556
     53 O           5.2733    7.9790    6.6129 os      2  DGE       -0.3434
     54 C17         6.3033    8.0790    7.6129 c3      2  DGE        0.0790
     55 C3          6.7233    9.5590    7.7529 c3      2  DGE        0.0750
     56 H           7.1733    7.4690    7.3429 h1      2  DGE        0.0600
     57 H1          5.9033    7.7290    8.5729 h1      2  DGE        0.0600
     58 C1          7.4633    9.8190    9.0729 c3      2  DGE       -0.0367
     59 H2          6.8333    9.5690    9.9329 hc      2  DGE        0.0258
     60 H3          7.7533   10.8690    9.1629 hc      2  DGE        0.0258
     61 H4          8.3733    9.2090    9.1329 hc      2  DGE        0.0258
     62 O1          7.5733    9.9290    6.6629 oh      2  DGE       -0.3910
     63 H5          5.8133   10.1790    7.7329 h1      2  DGE        0.0622
     64 O2          0.2433    3.6190   -0.1571 os      2  DGE       -0.3434
     65 C18        -1.1567    3.4590   -0.4571 c3      2  DGE        0.0805
     66 C4         -1.3367    3.5490   -1.9871 c3      2  DGE        0.0905
     67 H6         -1.7467    4.2390    0.0329 h1      2  DGE        0.0600
     68 H7         -1.4967    2.4790   -0.1071 h1      2  DGE        0.0600
     69 O3         -1.2067    4.9090   -2.4071 oh      2  DGE       -0.3894
     70 C2         -2.7167    2.9890   -2.3971 c3      2  DGE        0.0270
     71 H8         -0.5667    2.9290   -2.4671 h1      2  DGE        0.0639
     72 H10        -2.8467    2.0190   -1.9071 h1      2  DGE        0.0459
     73 H11        -3.5067    3.6490   -2.0271 h1      2  DGE        0.0459
     74 H12        -1.1367    3.2490    2.1529 ha      2  DGE        0.0650
     75 H13         2.7833    3.7290    0.4229 ha      2  DGE        0.0650
     76 H14         3.8033    3.5190    2.6629 ha      2  DGE        0.0627
     77 H15        -0.1567    3.0290    4.3629 ha      2  DGE        0.0627
     78 H16         2.1833    5.7290    4.1929 ha      2  DGE        0.0627
     79 H17         3.3633    7.7790    4.8629 ha      2  DGE        0.0650
     80 H18         5.8033    5.4990    7.5929 ha      2  DGE        0.0650
     81 H19         4.6533    3.4490    6.9329 ha      2  DGE        0.0627
     82 H20        -0.3167    5.1990   -2.1271 ho      2  DGE        0.2106
     83 H21         7.6733   10.8990    6.6729 ho      2  DGE        0.2106
     84 C19         3.5633    1.8890    5.0129 c3      2  DGE       -0.0517
     85 H22         4.4333    2.0990    4.3829 hc      2  DGE        0.0243
     86 H23         3.0433    1.0090    4.5929 hc      2  DGE        0.0243
     87 H24         3.9333    1.5890    6.0029 hc      2  DGE        0.0243
     88 C20         1.5833    2.8190    6.2329 c3      2  DGE       -0.0517
     89 H25         0.8733    3.6390    6.3429 hc      2  DGE        0.0243
     90 H26         2.0933    2.6890    7.1929 hc      2  DGE        0.0243
     91 H27         1.0133    1.8890    6.0429 hc      2  DGE        0.0243
     92 C           0.5713   -5.1880    4.1209 ca      3  DGE       -0.0315
     93 C5          1.2683   -6.3970    4.0269 ca      3  DGE        0.0750
     94 C6          1.0183   -7.2510    2.9459 ca      3  DGE       -0.0315
     95 C7          0.0643   -6.9110    1.9779 ca      3  DGE       -0.0556
     96 C8         -0.3867   -4.8410    3.1449 ca      3  DGE       -0.0556
     97 C9         -0.6617   -5.6990    2.0599 ca      3  DGE       -0.0378
     98 C10        -1.7347   -5.2900    1.0169 c3      3  DGE        0.0146
     99 C11        -1.3367   -4.0130    0.2459 ca      3  DGE       -0.0378
    100 C12         0.0053   -3.5680    0.2009 ca      3  DGE       -0.0556
    101 C13         0.3623   -2.4290   -0.5481 ca      3  DGE       -0.0315
    102 C14        -0.6057   -1.7280   -1.2841 ca      3  DGE        0.0750
    103 C15        -1.9397   -2.1760   -1.2601 ca      3  DGE       -0.0315
    104 C16        -2.2887   -3.3080   -0.5091 ca      3  DGE       -0.0556
    105 O          -0.1957   -0.6450   -2.0241 os      3  DGE       -0.3434
    106 C17        -1.1007    0.1740   -2.7961 c3      3  DGE        0.0805
    107 C3         -0.2817    1.2810   -3.5011 c3      3  DGE        0.0905
    108 H          -1.8597    0.6330   -2.1471 h1      3  DGE        0.0600
    109 H1         -1.5967   -0.4430   -3.5491 h1      3  DGE        0.0600
    110 C1         -1.0857    1.9480   -4.6331 c3      3  DGE        0.0270
    111 H2         -1.3867    1.2050   -5.3861 h1      3  DGE        0.0459
    112 H3         -0.4887    2.7190   -5.1281 h1      3  DGE        0.0459
    113 O1          0.1033    2.2810   -2.5561 oh      3  DGE       -0.3894
    114 H5          0.6153    0.8160   -3.9361 h1      3  DGE        0.0639
    115 O2          2.1863   -6.6930    5.0239 os      3  DGE       -0.3434
    116 C18         2.9713   -7.9020    5.0369 c3      3  DGE        0.0790
    117 C4          3.8433   -7.9070    6.3109 c3      3  DGE        0.0750
    118 H6          3.6063   -7.9680    4.1469 h1      3  DGE        0.0600
    119 H7          2.3033   -8.7780    5.0489 h1      3  DGE        0.0600
    120 O3          4.8343   -6.8870    6.2119 oh      3  DGE       -0.3910
    121 C2          4.5323   -9.2720    6.5149 c3      3  DGE       -0.0367
    122 H8          3.1883   -7.7140    7.1759 h1      3  DGE        0.0622
    123 H9          3.7973  -10.0720    6.6119 hc      3  DGE        0.0258
    124 H10         5.1403   -9.2600    7.4269 hc      3  DGE        0.0258
    125 H11         5.1883   -9.5130    5.6659 hc      3  DGE        0.0258
    126 H12         1.5473   -8.2000    2.8489 ha      3  DGE        0.0650
    127 H13         0.7603   -4.5100    4.9499 ha      3  DGE        0.0650
    128 H14        -0.9027   -3.8900    3.2379 ha      3  DGE        0.0627
    129 H15        -0.0947   -7.6070    1.1579 ha      3  DGE        0.0627
    130 H16         0.7903   -4.0880    0.7359 ha      3  DGE        0.0627
    131 H17         1.3953   -2.0960   -0.5721 ha      3  DGE        0.0650
    132 H18        -2.7087   -1.6620   -1.8361 ha      3  DGE        0.0650
    133 H19        -3.3267   -3.6380   -0.5351 ha      3  DGE        0.0627
    134 H20         4.3603   -6.0520    6.0309 ho      3  DGE        0.2106
    135 H21         0.7873    2.8420   -2.9751 ho      3  DGE        0.2106
    136 C19        -3.0667   -5.0680    1.7989 c3      3  DGE       -0.0517
    137 H22        -3.0217   -4.1730    2.4219 hc      3  DGE        0.0243
    138 H23        -3.2747   -5.9280    2.4569 hc      3  DGE        0.0243
    139 H24        -3.9277   -4.9720    1.1269 hc      3  DGE        0.0243
    140 C20        -1.9977   -6.4020   -0.0291 c3      3  DGE       -0.0517
    141 H25        -1.1047   -6.6010   -0.6371 hc      3  DGE        0.0243
    142 H26        -2.8027   -6.1140   -0.7151 hc      3  DGE        0.0243
    143 H27        -2.3057   -7.3460    0.4459 hc      3  DGE        0.0243
@<TRIPOS>BOND
     1     1     2    1
     2     2     3    1
     3     3     4    1
     4     4     5    1
     5     5     6    1
     6     1     6    1
     7     6     7    1
     8     7     8    1
     9     8     9    1
    10     9    10    1
    11    10    11    1
    12    11    12    1
    13    12    13    1
    14     8    13    1
    15    11    14    1
    16     3    15    1
    17     1    16    1
    18     1    17    1
    19     2    18    1
    20     2    19    1
    21     3    20    1
    22     4    21    1
    23     4    22    1
    24     5    23    1
    25     5    24    1
    26     6    25    1
    27     7    26    1
    28     7    27    1
    29     8    28    1
    30     9    29    1
    31     9    30    1
    32    10    31    1
    33    10    32    1
    34    11    33    1
    35    12    34    1
    36    12    35    1
    37    13    36    1
    38    13    37    1
    39    15    38    1
    40    15    39    1
    41    40    41   ar
    42    41    42   ar
    43    42    43   ar
    44    40    44   ar
    45    44    45   ar
    46    43    45   ar
    47    45    46    1
    48    46    47    1
    49    47    48   ar
    50    48    49   ar
    51    49    50   ar
    52    50    51   ar
    53    51    52   ar
    54    47    52   ar
    55    50    53    1
    56    53    54    1
    57    54    55    1
    58    54    56    1
    59    54    57    1
    60    55    58    1
    61    58    59    1
    62    58    60    1
    63    58    61    1
    64    55    62    1
    65    55    63    1
    66    41    64    1
    67    64    65    1
    68    65    66    1
    69    65    67    1
    70    65    68    1
    71    66    69    1
    72    66    70    1
    73    66    71    1
    74    70    72    1
    75    70    73    1
    76    42    74    1
    77    40    75    1
    78    44    76    1
    79    43    77    1
    80    48    78    1
    81    49    79    1
    82    51    80    1
    83    52    81    1
    84    69    82    1
    85    62    83    1
    86    46    84    1
    87    84    85    1
    88    84    86    1
    89    84    87    1
    90    46    88    1
    91    88    89    1
    92    88    90    1
    93    88    91    1
    94    14    70    1
    95    92    93   ar
    96    93    94   ar
    97    94    95   ar
    98    92    96   ar
    99    96    97   ar
   100    95    97   ar
   101    97    98    1
   102    98    99    1
   103    99   100   ar
   104   100   101   ar
   105   101   102   ar
   106   102   103   ar
   107   103   104   ar
   108    99   104   ar
   109   102   105    1
   110   105   106    1
   111   106   107    1
   112   106   108    1
   113   106   109    1
   114   107   110    1
   115   110   111    1
   116   110   112    1
   117   107   113    1
   118   107   114    1
   119    93   115    1
   120   115   116    1
   121   116   117    1
   122   116   118    1
   123   116   119    1
   124   117   120    1
   125   117   121    1
   126   117   122    1
   127   121   123    1
   128   121   124    1
   129   121   125    1
   130    94   126    1
   131    92   127    1
   132    96   128    1
   133    95   129    1
   134   100   130    1
   135   101   131    1
   136   103   132    1
   137   104   133    1
   138   120   134    1
   139   113   135    1
   140    98   136    1
   141   136   137    1
   142   136   138    1
   143   136   139    1
   144    98   140    1
   145   140   141    1
   146   140   142    1
   147   140   143    1
   148    14   110    1
@<TRIPOS>SUBSTRUCTURE
     1 PAC          1 RESIDUE
     2 DGE          1 RESIDUE
     3 DGE          1 RESIDUE
