@<TRIPOS>MOLECULE
PACDGE2-7
   143   148  3  0  0
SMALL
gas

@<TRIPOS>ATOM
      1 C          -4.3012    5.6331   -3.5018 c3      1  PAC       -0.0489
      2 C3         -3.9512    4.1331   -3.3418 c3      1  PAC       -0.0373
      3 C2         -2.7412    3.7331   -4.2118 c3      1  PAC        0.0098
      4 C4         -1.5212    4.6331   -3.8918 c3      1  PAC       -0.0373
      5 C5         -1.8712    6.1231   -4.1018 c3      1  PAC       -0.0489
      6 C6         -3.0912    6.5831   -3.2518 c3      1  PAC       -0.0411
      7 C7         -2.7812    6.7231   -1.7318 c3      1  PAC       -0.0476
      8 C8         -1.6812    7.7531   -1.3418 c3      1  PAC       -0.0411
      9 C9         -1.9712    9.2031   -1.8118 c3      1  PAC       -0.0490
     10 C10        -3.1412    9.8531   -1.0318 c3      1  PAC       -0.0377
     11 C1         -2.9112    9.8331    0.4982 c3      1  PAC        0.0039
     12 C11        -2.5512    8.4031    0.9982 c3      1  PAC       -0.0377
     13 C12        -1.4112    7.7431    0.1882 c3      1  PAC       -0.0490
     14 N1         -1.8512   10.7831    0.8782 n3      1  PAC       -0.3277
     15 N2         -2.4712    2.2931   -4.0918 n3      1  PAC       -0.2951
     16 H          -5.1312    5.8931   -2.8418 hc      1  PAC        0.0270
     17 H1         -4.6612    5.7931   -4.5218 hc      1  PAC        0.0270
     18 H2         -4.8212    3.5331   -3.6218 hc      1  PAC        0.0283
     19 H3         -3.7312    3.9131   -2.2918 hc      1  PAC        0.0283
     20 H4         -3.0112    3.9231   -5.2618 h1      1  PAC        0.0467
     21 H5         -0.6712    4.3831   -4.5518 hc      1  PAC        0.0283
     22 H6         -1.1812    4.4631   -2.8618 hc      1  PAC        0.0283
     23 H7         -2.1112    6.2831   -5.1618 hc      1  PAC        0.0270
     24 H8         -0.9912    6.7531   -3.9018 hc      1  PAC        0.0270
     25 H9         -3.4012    7.5631   -3.6218 hc      1  PAC        0.0303
     26 H10        -2.5012    5.7431   -1.3318 hc      1  PAC        0.0272
     27 H11        -3.7212    6.9831   -1.2218 hc      1  PAC        0.0272
     28 H12        -0.7412    7.4331   -1.8218 hc      1  PAC        0.0303
     29 H13        -2.1812    9.2431   -2.8918 hc      1  PAC        0.0270
     30 H14        -1.0712    9.8131   -1.6718 hc      1  PAC        0.0270
     31 H15        -4.0712    9.3331   -1.2618 hc      1  PAC        0.0283
     32 H16        -3.2712   10.8931   -1.3618 hc      1  PAC        0.0283
     33 H17        -3.8312   10.1431    0.9982 h1      1  PAC        0.0462
     34 H18        -3.4512    7.7731    0.9382 hc      1  PAC        0.0283
     35 H19        -2.2812    8.4431    2.0582 hc      1  PAC        0.0283
     36 H20        -1.2512    6.7231    0.5382 hc      1  PAC        0.0270
     37 H21        -0.4812    8.2931    0.3882 hc      1  PAC        0.0270
     38 H22        -0.9712   10.4931    0.4482 hn      1  PAC        0.1187
     39 H23        -1.7112   10.7531    1.8882 hn      1  PAC        0.1187
     40 C          -2.8012   -4.2269   -4.6818 ca      2  DGE       -0.0315
     41 C5         -2.3812   -3.0769   -3.9918 ca      2  DGE        0.0750
     42 C6         -2.3112   -3.1069   -2.5818 ca      2  DGE       -0.0315
     43 C7         -2.6912   -4.2569   -1.8818 ca      2  DGE       -0.0556
     44 C8         -3.1812   -5.3769   -3.9718 ca      2  DGE       -0.0556
     45 C9         -3.1412   -5.4169   -2.5618 ca      2  DGE       -0.0378
     46 C10        -3.5912   -6.7069   -1.8218 c3      2  DGE        0.0146
     47 C11        -2.6712   -7.9069   -2.1318 ca      2  DGE       -0.0378
     48 C12        -1.3612   -7.7269   -2.6318 ca      2  DGE       -0.0556
     49 C13        -0.5212   -8.8269   -2.8618 ca      2  DGE       -0.0315
     50 C14        -0.9512  -10.1269   -2.5718 ca      2  DGE        0.0750
     51 C15        -2.2512  -10.3269   -2.0618 ca      2  DGE       -0.0315
     52 C16        -3.0912   -9.2169   -1.8418 ca      2  DGE       -0.0556
     53 O          -0.0712  -11.1669   -2.7918 os      2  DGE       -0.3434
     54 C17        -0.4012  -12.5469   -2.5318 c3      2  DGE        0.0790
     55 C3          0.8188  -13.4269   -2.8818 c3      2  DGE        0.0750
     56 H          -1.2712  -12.8669   -3.1418 h1      2  DGE        0.0600
     57 H1         -0.6612  -12.6669   -1.4718 h1      2  DGE        0.0600
     58 C1          0.6988  -14.8269   -2.2418 c3      2  DGE       -0.0367
     59 H2          0.6388  -14.7569   -1.1518 hc      2  DGE        0.0258
     60 H3          1.5788  -15.4369   -2.4818 hc      2  DGE        0.0258
     61 H4         -0.1912  -15.3469   -2.6018 hc      2  DGE        0.0258
     62 O1          0.9388  -13.5669   -4.2918 oh      2  DGE       -0.3910
     63 H5          1.7188  -12.9369   -2.4818 h1      2  DGE        0.0622
     64 O2         -2.0512   -1.9669   -4.7318 os      2  DGE       -0.3434
     65 C18        -1.7012   -0.6869   -4.1618 c3      2  DGE        0.0805
     66 C4         -1.5212    0.3031   -5.3318 c3      2  DGE        0.0905
     67 H6         -0.7612   -0.7669   -3.5818 h1      2  DGE        0.0600
     68 H7         -2.5012   -0.3469   -3.4918 h1      2  DGE        0.0600
     69 O3         -0.3912   -0.0769   -6.1118 oh      2  DGE       -0.3894
     70 C2         -1.3412    1.7731   -4.8918 c3      2  DGE        0.0270
     71 H8         -2.4312    0.2531   -5.9518 h1      2  DGE        0.0639
     72 H10        -1.2412    2.3731   -5.8018 h1      2  DGE        0.0459
     73 H9         -0.4012    1.8831   -4.3218 h1      2  DGE        0.0459
     74 H12        -1.9812   -2.2369   -2.0318 ha      2  DGE        0.0650
     75 H13        -2.8512   -4.2169   -5.7618 ha      2  DGE        0.0650
     76 H14        -3.5012   -6.2569   -4.5318 ha      2  DGE        0.0627
     77 H15        -2.6212   -4.2269   -0.8018 ha      2  DGE        0.0627
     78 H16        -0.9712   -6.7369   -2.8318 ha      2  DGE        0.0627
     79 H17         0.4888   -8.6669   -3.2418 ha      2  DGE        0.0650
     80 H18        -2.6112  -11.3169   -1.8218 ha      2  DGE        0.0650
     81 H19        -4.0812   -9.4069   -1.4218 ha      2  DGE        0.0627
     82 H20        -0.5212   -1.0169   -6.3418 ho      2  DGE        0.2106
     83 H21         1.8088  -13.9669   -4.4818 ho      2  DGE        0.2106
     84 C19        -5.0612   -6.9969   -2.2618 c3      2  DGE       -0.0517
     85 H22        -5.1012   -7.3469   -3.3018 hc      2  DGE        0.0243
     86 H23        -5.6712   -6.0869   -2.1818 hc      2  DGE        0.0243
     87 H24        -5.5312   -7.7569   -1.6418 hc      2  DGE        0.0243
     88 C20        -3.6112   -6.5269   -0.2818 c3      2  DGE       -0.0517
     89 H25        -2.6012   -6.3369    0.1082 hc      2  DGE        0.0243
     90 H26        -3.9912   -7.4269    0.2182 hc      2  DGE        0.0243
     91 H27        -4.2612   -5.6969    0.0182 hc      2  DGE        0.0243
     92 C           2.8578    0.6461    1.2982 ca      3  DGE       -0.0315
     93 C5          1.4678    0.7851    1.2102 ca      3  DGE        0.0750
     94 C6          0.6798    0.5201    2.3372 ca      3  DGE       -0.0315
     95 C7          1.2728    0.1011    3.5352 ca      3  DGE       -0.0556
     96 C8          3.4568    0.2271    2.5042 ca      3  DGE       -0.0556
     97 C9          2.6748   -0.0589    3.6422 ca      3  DGE       -0.0378
     98 C10         3.3698   -0.5329    4.9452 c3      3  DGE        0.0146
     99 C11         4.3008    0.5491    5.5332 ca      3  DGE       -0.0378
    100 C12         4.1698    1.9091    5.1692 ca      3  DGE       -0.0556
    101 C13         4.9928    2.8941    5.7522 ca      3  DGE       -0.0315
    102 C14         5.9428    2.5441    6.7242 ca      3  DGE        0.0750
    103 C15         6.0658    1.1951    7.1052 ca      3  DGE       -0.0315
    104 C16         5.2458    0.2201    6.5192 ca      3  DGE       -0.0556
    105 O           6.6948    3.5491    7.2842 os      3  DGE       -0.3434
    106 C17         7.7248    3.3121    8.2682 c3      3  DGE        0.0790
    107 C3          8.3398    4.6731    8.6732 c3      3  DGE        0.0750
    108 H           8.5088    2.6581    7.8622 h1      3  DGE        0.0600
    109 H1          7.2828    2.8401    9.1492 h1      3  DGE        0.0600
    110 C1          9.1548    4.5621    9.9762 c3      3  DGE       -0.0367
    111 H2          8.5208    4.2071   10.8022 hc      3  DGE        0.0258
    112 H3          9.5718    5.5331   10.2542 hc      3  DGE        0.0258
    113 H4          9.9758    3.8481    9.8562 hc      3  DGE        0.0258
    114 O1          9.1938    5.1521    7.6332 oh      3  DGE       -0.3910
    115 H5          7.5158    5.3841    8.8352 h1      3  DGE        0.0622
    116 O2          0.9328    1.1841   -0.0048 os      3  DGE       -0.3434
    117 C18        -0.4802    1.3691   -0.2208 c3      3  DGE        0.0805
    118 C4         -0.7032    1.7701   -1.6948 c3      3  DGE        0.0905
    119 H6         -0.8802    2.1421    0.4442 h1      3  DGE        0.0600
    120 H7         -1.0142    0.4271   -0.0138 h1      3  DGE        0.0600
    121 O3         -0.1762    3.0751   -1.9168 oh      3  DGE       -0.3894
    122 C2         -2.2022    1.7541   -2.0608 c3      3  DGE        0.0270
    123 H8         -0.1812    1.0381   -2.3328 h1      3  DGE        0.0639
    124 H9         -2.6312    0.7611   -1.9168 h1      3  DGE        0.0459
    125 H10        -2.7672    2.4621   -1.4368 h1      3  DGE        0.0459
    126 H12        -0.4052    0.6201    2.2962 ha      3  DGE        0.0650
    127 H13         3.4828    0.8561    0.4332 ha      3  DGE        0.0650
    128 H14         4.5388    0.1411    2.5452 ha      3  DGE        0.0627
    129 H15         0.6188   -0.0929    4.3822 ha      3  DGE        0.0627
    130 H16         3.4368    2.2311    4.4392 ha      3  DGE        0.0627
    131 H17         4.8848    3.9341    5.4622 ha      3  DGE        0.0650
    132 H18         6.7828    0.8971    7.8712 ha      3  DGE        0.0650
    133 H19         5.3538   -0.8099    6.8582 ha      3  DGE        0.0627
    134 H20         0.7558    3.0541   -1.6248 ho      3  DGE        0.2106
    135 H21         9.3918    6.0921    7.8182 ho      3  DGE        0.2106
    136 C19         4.1788   -1.8179    4.5872 c3      3  DGE       -0.0517
    137 H22         5.0388   -1.5879    3.9572 hc      3  DGE        0.0243
    138 H23         3.5418   -2.5339    4.0402 hc      3  DGE        0.0243
    139 H24         4.5408   -2.3399    5.4802 hc      3  DGE        0.0243
    140 C20         2.3548   -0.9239    6.0492 c3      3  DGE       -0.0517
    141 H25         1.7588   -0.0589    6.3702 hc      3  DGE        0.0243
    142 H26         2.8688   -1.3139    6.9352 hc      3  DGE        0.0243
    143 H27         1.6638   -1.7099    5.7082 hc      3  DGE        0.0243
@<TRIPOS>BOND
     1     1     2    1
     2     2     3    1
     3     3     4    1
     4     4     5    1
     5     5     6    1
     6     1     6    1
     7     6     7    1
     8     7     8    1
     9     8     9    1
    10     9    10    1
    11    10    11    1
    12    11    12    1
    13    12    13    1
    14     8    13    1
    15    11    14    1
    16     3    15    1
    17     1    16    1
    18     1    17    1
    19     2    18    1
    20     2    19    1
    21     3    20    1
    22     4    21    1
    23     4    22    1
    24     5    23    1
    25     5    24    1
    26     6    25    1
    27     7    26    1
    28     7    27    1
    29     8    28    1
    30     9    29    1
    31     9    30    1
    32    10    31    1
    33    10    32    1
    34    11    33    1
    35    12    34    1
    36    12    35    1
    37    13    36    1
    38    13    37    1
    39    14    38    1
    40    14    39    1
    41    40    41   ar
    42    41    42   ar
    43    42    43   ar
    44    40    44   ar
    45    44    45   ar
    46    43    45   ar
    47    45    46    1
    48    46    47    1
    49    47    48   ar
    50    48    49   ar
    51    49    50   ar
    52    50    51   ar
    53    51    52   ar
    54    47    52   ar
    55    50    53    1
    56    53    54    1
    57    54    55    1
    58    54    56    1
    59    54    57    1
    60    55    58    1
    61    58    59    1
    62    58    60    1
    63    58    61    1
    64    55    62    1
    65    55    63    1
    66    41    64    1
    67    64    65    1
    68    65    66    1
    69    65    67    1
    70    65    68    1
    71    66    69    1
    72    66    70    1
    73    66    71    1
    74    70    72    1
    75    70    73    1
    76    42    74    1
    77    40    75    1
    78    44    76    1
    79    43    77    1
    80    48    78    1
    81    49    79    1
    82    51    80    1
    83    52    81    1
    84    69    82    1
    85    62    83    1
    86    46    84    1
    87    84    85    1
    88    84    86    1
    89    84    87    1
    90    46    88    1
    91    88    89    1
    92    88    90    1
    93    88    91    1
    94    15    70    1
    95    92    93   ar
    96    93    94   ar
    97    94    95   ar
    98    92    96   ar
    99    96    97   ar
   100    95    97   ar
   101    97    98    1
   102    98    99    1
   103    99   100   ar
   104   100   101   ar
   105   101   102   ar
   106   102   103   ar
   107   103   104   ar
   108    99   104   ar
   109   102   105    1
   110   105   106    1
   111   106   107    1
   112   106   108    1
   113   106   109    1
   114   107   110    1
   115   110   111    1
   116   110   112    1
   117   110   113    1
   118   107   114    1
   119   107   115    1
   120    93   116    1
   121   116   117    1
   122   117   118    1
   123   117   119    1
   124   117   120    1
   125   118   121    1
   126   118   122    1
   127   118   123    1
   128   122   124    1
   129   122   125    1
   130    94   126    1
   131    92   127    1
   132    96   128    1
   133    95   129    1
   134   100   130    1
   135   101   131    1
   136   103   132    1
   137   104   133    1
   138   121   134    1
   139   114   135    1
   140    98   136    1
   141   136   137    1
   142   136   138    1
   143   136   139    1
   144    98   140    1
   145   140   141    1
   146   140   142    1
   147   140   143    1
   148    15   122    1
@<TRIPOS>SUBSTRUCTURE
     1 PAC          1 RESIDUE
     2 DGE          1 RESIDUE
     3 DGE          1 RESIDUE
