@<TRIPOS>MOLECULE
PACDGE2-1
   143   148  3  0  0
SMALL
gas

@<TRIPOS>ATOM
      1 C          -1.3521   -4.0037   -7.3641 c3      1  PAC       -0.0490
      2 C3         -1.1221   -5.5037   -7.1041 c3      1  PAC       -0.0377
      3 C2          0.0779   -6.0537   -7.9241 c3      1  PAC        0.0039
      4 C4          1.3479   -5.2037   -7.7241 c3      1  PAC       -0.0377
      5 C5          1.0879   -3.6937   -7.9741 c3      1  PAC       -0.0490
      6 C6         -0.0821   -3.1437   -7.1241 c3      1  PAC       -0.0411
      7 C7          0.2379   -3.0437   -5.6041 c3      1  PAC       -0.0476
      8 C8          1.3279   -2.0137   -5.1841 c3      1  PAC       -0.0411
      9 C9          0.9279   -0.5337   -5.4641 c3      1  PAC       -0.0489
     10 C10        -0.2421   -0.0637   -4.5641 c3      1  PAC       -0.0373
     11 C1          0.0179   -0.2837   -3.0541 c3      1  PAC        0.0098
     12 C11         0.5379   -1.7137   -2.7541 c3      1  PAC       -0.0373
     13 C12         1.6879   -2.1537   -3.6841 c3      1  PAC       -0.0489
     14 N1          0.9279    0.7763   -2.5541 n3      1  PAC       -0.2951
     15 N2          0.3279   -7.4537   -7.5841 n3      1  PAC       -0.3277
     16 H          -2.1821   -3.6437   -6.7441 hc      1  PAC        0.0270
     17 H1         -1.6721   -3.8737   -8.4041 hc      1  PAC        0.0270
     18 H2         -2.0221   -6.0637   -7.3641 hc      1  PAC        0.0283
     19 H3         -0.9421   -5.6737   -6.0341 hc      1  PAC        0.0283
     20 H4         -0.1921   -6.0037   -8.9841 h1      1  PAC        0.0462
     21 H5          2.1379   -5.5437   -8.4041 hc      1  PAC        0.0283
     22 H6          1.7379   -5.3437   -6.7041 hc      1  PAC        0.0283
     23 H7          0.8479   -3.5537   -9.0341 hc      1  PAC        0.0270
     24 H8          2.0079   -3.1237   -7.7941 hc      1  PAC        0.0270
     25 H9         -0.3221   -2.1337   -7.4841 hc      1  PAC        0.0303
     26 H10         0.5479   -4.0337   -5.2341 hc      1  PAC        0.0272
     27 H11        -0.6921   -2.8237   -5.0641 hc      1  PAC        0.0272
     28 H12         2.2379   -2.2237   -5.7541 hc      1  PAC        0.0303
     29 H13         0.6679   -0.3937   -6.5241 hc      1  PAC        0.0270
     30 H14         1.7979    0.1063   -5.2741 hc      1  PAC        0.0270
     31 H15        -1.1621   -0.5937   -4.8541 hc      1  PAC        0.0283
     32 H16        -0.4421    0.9963   -4.7641 hc      1  PAC        0.0283
     33 H17        -0.9421   -0.1637   -2.5441 h1      1  PAC        0.0467
     34 H18        -0.3021   -2.4137   -2.8641 hc      1  PAC        0.0283
     35 H19         0.8579   -1.8137   -1.7141 hc      1  PAC        0.0283
     36 H20         1.9679   -3.1937   -3.4641 hc      1  PAC        0.0270
     37 H21         2.5779   -1.5437   -3.4641 hc      1  PAC        0.0270
     38 H24         0.6079   -7.5137   -6.6041 hn      1  PAC        0.1187
     39 H25         1.1179   -7.8037   -8.1241 hn      1  PAC        0.1187
     40 C          -9.5721    1.8663    2.2659 ca      2  DGE       -0.0315
     41 C5        -10.6221    1.1463    1.6859 ca      2  DGE        0.0750
     42 C6        -10.7021    1.0463    0.2859 ca      2  DGE       -0.0315
     43 C7         -9.7421    1.6763   -0.5241 ca      2  DGE       -0.0556
     44 C8         -8.6121    2.4963    1.4559 ca      2  DGE       -0.0556
     45 C9         -8.6821    2.4263    0.0459 ca      2  DGE       -0.0378
     46 C10        -7.6221    3.1663   -0.8041 c3      2  DGE        0.0146
     47 C11        -6.2021    2.6063   -0.5441 ca      2  DGE       -0.0378
     48 C12        -6.0021    1.3063   -0.0441 ca      2  DGE       -0.0556
     49 C13        -4.7021    0.7963    0.1559 ca      2  DGE       -0.0315
     50 C14        -3.5821    1.5763   -0.1741 ca      2  DGE        0.0750
     51 C15        -3.7621    2.8663   -0.6941 ca      2  DGE       -0.0315
     52 C16        -5.0621    3.3763   -0.8841 ca      2  DGE       -0.0556
     53 O          -2.3321    1.0163    0.0159 os      2  DGE       -0.3434
     54 C17        -1.1021    1.6463   -0.3941 c3      2  DGE        0.0805
     55 C3          0.0379    0.6263   -0.1641 c3      2  DGE        0.0905
     56 H          -0.9221    2.5663    0.1759 h1      2  DGE        0.0600
     57 H1         -1.1721    1.9063   -1.4641 h1      2  DGE        0.0600
     58 C1          1.2479    0.8263   -1.1141 c3      2  DGE        0.0270
     59 H3          1.9879    0.0463   -0.8941 h1      2  DGE        0.0459
     60 H2          1.7179    1.7863   -0.8841 h1      2  DGE        0.0459
     61 O1          0.4979    0.7263    1.1859 oh      2  DGE       -0.3894
     62 H5         -0.3721   -0.3737   -0.3241 h1      2  DGE        0.0639
     63 O2        -11.5521    0.5563    2.5259 os      2  DGE       -0.3434
     64 C18       -12.6821   -0.1937    2.0459 c3      2  DGE        0.0790
     65 C4        -13.5121   -0.6537    3.2659 c3      2  DGE        0.0750
     66 H6        -12.3521   -1.0637    1.4759 h1      2  DGE        0.0600
     67 H7        -13.3021    0.4463    1.3959 h1      2  DGE        0.0600
     68 O3        -12.7921   -1.6237    4.0059 oh      2  DGE       -0.3910
     69 C2        -14.8621   -1.2537    2.8259 c3      2  DGE       -0.0367
     70 H8        -13.7121    0.2263    3.8959 h1      2  DGE        0.0622
     71 H9        -15.4621   -0.5137    2.2759 hc      2  DGE        0.0258
     72 H10       -15.4521   -1.5637    3.7059 hc      2  DGE        0.0258
     73 H11       -14.7121   -2.1337    2.1859 hc      2  DGE        0.0258
     74 H12       -11.5021    0.4863   -0.1941 ha      2  DGE        0.0650
     75 H13        -9.5021    1.9463    3.3459 ha      2  DGE        0.0650
     76 H14        -7.8121    3.0563    1.9359 ha      2  DGE        0.0627
     77 H15        -9.8421    1.5763   -1.5941 ha      2  DGE        0.0627
     78 H16        -6.8421    0.6663    0.1959 ha      2  DGE        0.0627
     79 H17        -4.5721   -0.2037    0.5459 ha      2  DGE        0.0650
     80 H18        -2.9121    3.4763   -0.9741 ha      2  DGE        0.0650
     81 H19        -5.1621    4.3663   -1.3141 ha      2  DGE        0.0627
     82 H20       -11.9221   -1.2237    4.2159 ho      2  DGE        0.2106
     83 H21         1.0279   -0.0737    1.3759 ho      2  DGE        0.2106
     84 C19        -7.7121    4.6763   -0.4441 c3      2  DGE       -0.0517
     85 H22        -7.3321    4.8663    0.5659 hc      2  DGE        0.0243
     86 H23        -8.7621    5.0163   -0.4741 hc      2  DGE        0.0243
     87 H24        -7.1521    5.2963   -1.1441 hc      2  DGE        0.0243
     88 C20        -7.8821    3.0363   -2.3341 c3      2  DGE       -0.0517
     89 H25        -7.8321    1.9963   -2.6641 hc      2  DGE        0.0243
     90 H26        -7.1421    3.6063   -2.9041 hc      2  DGE        0.0243
     91 H27        -8.8721    3.4363   -2.5941 hc      2  DGE        0.0243
     92 C           7.0939    1.0843    0.6829 ca      3  DGE       -0.0315
     93 C5          5.9049    0.5313    0.1959 ca      3  DGE        0.0750
     94 C6          5.3079   -0.5287    0.8899 ca      3  DGE       -0.0315
     95 C7          5.9039   -1.0447    2.0479 ca      3  DGE       -0.0556
     96 C8          7.6939    0.5693    1.8509 ca      3  DGE       -0.0556
     97 C9          7.1119   -0.5087    2.5499 ca      3  DGE       -0.0378
     98 C10         7.8119   -1.0577    3.8219 c3      3  DGE        0.0146
     99 C11         7.8649   -0.0087    4.9539 ca      3  DGE       -0.0378
    100 C12         7.0019    1.1113    4.9599 ca      3  DGE       -0.0556
    101 C13         7.0259    2.0333    6.0259 ca      3  DGE       -0.0315
    102 C14         7.8919    1.8423    7.1139 ca      3  DGE        0.0750
    103 C15         8.7399    0.7203    7.1239 ca      3  DGE       -0.0315
    104 C16         8.7139   -0.1927    6.0579 ca      3  DGE       -0.0556
    105 O           7.8489    2.7543    8.1409 os      3  DGE       -0.3434
    106 C17         8.7109    2.6853    9.2969 c3      3  DGE        0.0790
    107 C3          8.3669    3.8623   10.2389 c3      3  DGE        0.0750
    108 H           9.7679    2.7463    8.9989 h1      3  DGE        0.0600
    109 H1          8.5399    1.7413    9.8219 h1      3  DGE        0.0600
    110 C1          8.9499    3.6503   11.6499 c3      3  DGE       -0.0367
    111 H2          8.5609    2.7223   12.0949 hc      3  DGE        0.0258
    112 H3          8.6869    4.4843   12.3059 hc      3  DGE        0.0258
    113 H4         10.0399    3.5673   11.6059 hc      3  DGE        0.0258
    114 O1          8.8819    5.0833    9.7049 oh      3  DGE       -0.3910
    115 H5          7.2719    3.9253   10.3189 h1      3  DGE        0.0622
    116 O2          5.3699    1.0663   -0.9651 os      3  DGE       -0.3434
    117 C18         4.1479    0.5883   -1.5631 c3      3  DGE        0.0805
    118 C4          3.8889    1.3883   -2.8571 c3      3  DGE        0.0905
    119 H6          3.3029    0.7043   -0.8751 h1      3  DGE        0.0600
    120 H7          4.2489   -0.4807   -1.8081 h1      3  DGE        0.0600
    121 O3          3.5719    2.7383   -2.5271 oh      3  DGE       -0.3894
    122 C2          2.7319    0.7763   -3.6741 c3      3  DGE        0.0270
    123 H8          4.8039    1.3553   -3.4701 h1      3  DGE        0.0639
    124 H9          2.9529   -0.2537   -3.9571 h1      3  DGE        0.0459
    125 H10         2.5669    1.3513   -4.5931 h1      3  DGE        0.0459
    126 H12         4.3809   -0.9797    0.5319 ha      3  DGE        0.0650
    127 H13         7.5649    1.9133    0.1599 ha      3  DGE        0.0650
    128 H14         8.6099    1.0283    2.2119 ha      3  DGE        0.0627
    129 H15         5.4019   -1.8687    2.5509 ha      3  DGE        0.0627
    130 H16         6.3019    1.2893    4.1529 ha      3  DGE        0.0627
    131 H17         6.3599    2.8913    6.0179 ha      3  DGE        0.0650
    132 H18         9.4099    0.5373    7.9639 ha      3  DGE        0.0650
    133 H19         9.3679   -1.0617    6.1139 ha      3  DGE        0.0627
    134 H20         4.3029    3.0683   -1.9691 ho      3  DGE        0.2106
    135 H21         8.4729    5.8223   10.1969 ho      3  DGE        0.2106
    136 C19         9.2519   -1.4837    3.3999 c3      3  DGE       -0.0517
    137 H22         9.8759   -0.6187    3.1699 hc      3  DGE        0.0243
    138 H23         9.2169   -2.1237    2.5019 hc      3  DGE        0.0243
    139 H24         9.7549   -2.0677    4.1799 hc      3  DGE        0.0243
    140 C20         7.1089   -2.3177    4.3869 c3      3  DGE       -0.0517
    141 H25         6.0889   -2.0897    4.7269 hc      3  DGE        0.0243
    142 H26         7.6569   -2.7217    5.2449 hc      3  DGE        0.0243
    143 H27         7.0479   -3.1217    3.6379 hc      3  DGE        0.0243
@<TRIPOS>BOND
     1     1     2    1
     2     2     3    1
     3     3     4    1
     4     4     5    1
     5     5     6    1
     6     1     6    1
     7     6     7    1
     8     7     8    1
     9     8     9    1
    10     9    10    1
    11    10    11    1
    12    11    12    1
    13    12    13    1
    14     8    13    1
    15    11    14    1
    16     3    15    1
    17     1    16    1
    18     1    17    1
    19     2    18    1
    20     2    19    1
    21     3    20    1
    22     4    21    1
    23     4    22    1
    24     5    23    1
    25     5    24    1
    26     6    25    1
    27     7    26    1
    28     7    27    1
    29     8    28    1
    30     9    29    1
    31     9    30    1
    32    10    31    1
    33    10    32    1
    34    11    33    1
    35    12    34    1
    36    12    35    1
    37    13    36    1
    38    13    37    1
    39    15    38    1
    40    15    39    1
    41    40    41   ar
    42    41    42   ar
    43    42    43   ar
    44    40    44   ar
    45    44    45   ar
    46    43    45   ar
    47    45    46    1
    48    46    47    1
    49    47    48   ar
    50    48    49   ar
    51    49    50   ar
    52    50    51   ar
    53    51    52   ar
    54    47    52   ar
    55    50    53    1
    56    53    54    1
    57    54    55    1
    58    54    56    1
    59    54    57    1
    60    55    58    1
    61    58    59    1
    62    58    60    1
    63    55    61    1
    64    55    62    1
    65    41    63    1
    66    63    64    1
    67    64    65    1
    68    64    66    1
    69    64    67    1
    70    65    68    1
    71    65    69    1
    72    65    70    1
    73    69    71    1
    74    69    72    1
    75    69    73    1
    76    42    74    1
    77    40    75    1
    78    44    76    1
    79    43    77    1
    80    48    78    1
    81    49    79    1
    82    51    80    1
    83    52    81    1
    84    68    82    1
    85    61    83    1
    86    46    84    1
    87    84    85    1
    88    84    86    1
    89    84    87    1
    90    46    88    1
    91    88    89    1
    92    88    90    1
    93    88    91    1
    94    14    58    1
    95    92    93   ar
    96    93    94   ar
    97    94    95   ar
    98    92    96   ar
    99    96    97   ar
   100    95    97   ar
   101    97    98    1
   102    98    99    1
   103    99   100   ar
   104   100   101   ar
   105   101   102   ar
   106   102   103   ar
   107   103   104   ar
   108    99   104   ar
   109   102   105    1
   110   105   106    1
   111   106   107    1
   112   106   108    1
   113   106   109    1
   114   107   110    1
   115   110   111    1
   116   110   112    1
   117   110   113    1
   118   107   114    1
   119   107   115    1
   120    93   116    1
   121   116   117    1
   122   117   118    1
   123   117   119    1
   124   117   120    1
   125   118   121    1
   126   118   122    1
   127   118   123    1
   128   122   124    1
   129   122   125    1
   130    94   126    1
   131    92   127    1
   132    96   128    1
   133    95   129    1
   134   100   130    1
   135   101   131    1
   136   103   132    1
   137   104   133    1
   138   121   134    1
   139   114   135    1
   140    98   136    1
   141   136   137    1
   142   136   138    1
   143   136   139    1
   144    98   140    1
   145   140   141    1
   146   140   142    1
   147   140   143    1
   148    14   122    1
@<TRIPOS>SUBSTRUCTURE
     1 PAC          1 RESIDUE
     2 DGE          1 RESIDUE
     3 DGE          1 RESIDUE
