@<TRIPOS>MOLECULE
PACDGE2-5
   143   148  3  0  0
SMALL
gas

@<TRIPOS>ATOM
      1 C          -2.8928    2.0160   -0.2009 c3      1  PAC       -0.0489
      2 C3         -2.5228    0.5260   -0.0209 c3      1  PAC       -0.0373
      3 C1         -1.3128    0.1260   -0.8809 c3      1  PAC        0.0098
      4 C4         -0.1028    1.0660   -0.6109 c3      1  PAC       -0.0373
      5 C5         -0.4928    2.5460   -0.8209 c3      1  PAC       -0.0489
      6 C6         -1.7028    2.9760    0.0491 c3      1  PAC       -0.0411
      7 C7         -1.3728    3.0960    1.5691 c3      1  PAC       -0.0476
      8 C8         -0.2528    4.1260    1.9491 c3      1  PAC       -0.0411
      9 C9         -0.5528    5.5760    1.4991 c3      1  PAC       -0.0490
     10 C10        -1.7128    6.2260    2.2891 c3      1  PAC       -0.0377
     11 C2         -1.4828    6.1860    3.8191 c3      1  PAC        0.0039
     12 C11        -1.1228    4.7560    4.3091 c3      1  PAC       -0.0377
     13 C12         0.0172    4.1060    3.4791 c3      1  PAC       -0.0490
     14 N2         -0.4328    7.1360    4.1991 n3      1  PAC       -0.3277
     15 N1         -0.9828   -1.3040   -0.6609 n3      1  PAC       -0.2951
     16 H          -3.7328    2.2760    0.4691 hc      1  PAC        0.0270
     17 H1         -3.2628    2.1660   -1.2209 hc      1  PAC        0.0270
     18 H2         -3.3928   -0.0940   -0.2909 hc      1  PAC        0.0283
     19 H3         -2.3128    0.3260    1.0391 hc      1  PAC        0.0283
     20 H4         -1.6028    0.2560   -1.9309 h1      1  PAC        0.0467
     21 H5          0.7272    0.8260   -1.2909 hc      1  PAC        0.0283
     22 H6          0.2672    0.9160    0.4091 hc      1  PAC        0.0283
     23 H7         -0.7528    2.6860   -1.8809 hc      1  PAC        0.0270
     24 H8          0.3772    3.1860   -0.6409 hc      1  PAC        0.0270
     25 H9         -2.0328    3.9660   -0.3009 hc      1  PAC        0.0303
     26 H10        -1.0828    2.1160    1.9491 hc      1  PAC        0.0272
     27 H11        -2.2928    3.3560    2.0891 hc      1  PAC        0.0272
     28 H12         0.6772    3.8060    1.4691 hc      1  PAC        0.0303
     29 H13        -0.7628    5.6260    0.4191 hc      1  PAC        0.0270
     30 H14         0.3572    6.1860    1.6491 hc      1  PAC        0.0270
     31 H15        -2.6528    5.7060    2.0491 hc      1  PAC        0.0283
     32 H16        -1.8528    7.2660    1.9591 hc      1  PAC        0.0283
     33 H17        -2.4128    6.4960    4.3091 h1      1  PAC        0.0462
     34 H18        -2.0228    4.1260    4.2491 hc      1  PAC        0.0283
     35 H19        -0.8428    4.7860    5.3691 hc      1  PAC        0.0283
     36 H20         0.1772    3.0760    3.8191 hc      1  PAC        0.0270
     37 H21         0.9472    4.6460    3.6791 hc      1  PAC        0.0270
     38 H22         0.4472    6.8560    3.7791 hn      1  PAC        0.1187
     39 H23        -0.2928    7.0960    5.2091 hn      1  PAC        0.1187
     40 C          -4.8728   -2.6940  -11.6909 ca      2  DGE       -0.0315
     41 C5         -5.6928   -1.6940  -12.2209 ca      2  DGE        0.0750
     42 C6         -6.6628   -1.0840  -11.4009 ca      2  DGE       -0.0315
     43 C7         -6.8028   -1.4840  -10.0609 ca      2  DGE       -0.0556
     44 C8         -5.0128   -3.0940  -10.3509 ca      2  DGE       -0.0556
     45 C9         -5.9928   -2.5040   -9.5109 ca      2  DGE       -0.0378
     46 C10        -6.1328   -3.0040   -8.0509 c3      2  DGE        0.0146
     47 C11        -4.8628   -2.7140   -7.2209 ca      2  DGE       -0.0378
     48 C12        -3.9228   -1.7240   -7.6109 ca      2  DGE       -0.0556
     49 C13        -2.8028   -1.4440   -6.8209 ca      2  DGE       -0.0315
     50 C14        -2.5928   -2.1240   -5.6109 ca      2  DGE        0.0750
     51 C15        -3.5228   -3.0940   -5.2009 ca      2  DGE       -0.0315
     52 C16        -4.6428   -3.3840   -6.0009 ca      2  DGE       -0.0556
     53 O          -1.4928   -1.7840   -4.8509 os      2  DGE       -0.3434
     54 C17        -1.2228   -2.3640   -3.5609 c3      2  DGE        0.0805
     55 C3          0.0372   -1.6940   -2.9609 c3      2  DGE        0.0905
     56 H          -1.0628   -3.4440   -3.6409 h1      2  DGE        0.0600
     57 H1         -2.0828   -2.1840   -2.9009 h1      2  DGE        0.0600
     58 C1          0.1372   -1.8840   -1.4309 c3      2  DGE        0.0270
     59 H3          1.0772   -1.4540   -1.0809 h1      2  DGE        0.0459
     60 H2          0.1772   -2.9640   -1.2209 h1      2  DGE        0.0459
     61 O1          1.2072   -2.2440   -3.5709 oh      2  DGE       -0.3894
     62 H5         -0.0128   -0.6140   -3.1809 h1      2  DGE        0.0639
     63 O2         -5.5228   -1.3440  -13.5509 os      2  DGE       -0.3434
     64 C18        -6.3128   -0.3340  -14.2009 c3      2  DGE        0.0790
     65 C4         -5.8628   -0.2440  -15.6809 c3      2  DGE        0.0750
     66 H6         -6.1728    0.6460  -13.7109 h1      2  DGE        0.0600
     67 H7         -7.3728   -0.6040  -14.1609 h1      2  DGE        0.0600
     68 O3         -4.5428    0.2860  -15.7509 oh      2  DGE       -0.3910
     69 C2         -6.8128    0.6460  -16.5009 c3      2  DGE       -0.0367
     70 H8         -5.8828   -1.2540  -16.1009 h1      2  DGE        0.0622
     71 H9         -7.8428    0.2460  -16.4809 hc      2  DGE        0.0258
     72 H10        -6.4928    0.6860  -17.5509 hc      2  DGE        0.0258
     73 H11        -6.8428    1.6660  -16.1109 hc      2  DGE        0.0258
     74 H12        -7.3028   -0.3040  -11.7809 ha      2  DGE        0.0650
     75 H13        -4.1228   -3.1640  -12.3109 ha      2  DGE        0.0650
     76 H14        -4.3528   -3.8640   -9.9609 ha      2  DGE        0.0627
     77 H15        -7.5628   -0.9940   -9.4609 ha      2  DGE        0.0627
     78 H16        -4.0628   -1.1540   -8.5209 ha      2  DGE        0.0627
     79 H17        -2.0928   -0.6840   -7.1309 ha      2  DGE        0.0650
     80 H18        -3.3928   -3.6340   -4.2609 ha      2  DGE        0.0650
     81 H19        -5.3528   -4.1140   -5.6409 ha      2  DGE        0.0627
     82 H20        -3.9928   -0.2640  -15.1809 ho      2  DGE        0.2106
     83 H21         1.9472   -1.6340   -3.3909 ho      2  DGE        0.2106
     84 C19        -6.4328   -4.5240   -8.1109 c3      2  DGE       -0.0517
     85 H22        -5.5428   -5.0940   -8.4209 hc      2  DGE        0.0243
     86 H23        -7.2328   -4.7340   -8.8209 hc      2  DGE        0.0243
     87 H24        -6.7528   -4.9240   -7.1409 hc      2  DGE        0.0243
     88 C20        -7.3228   -2.3340   -7.3109 c3      2  DGE       -0.0517
     89 H25        -7.1728   -1.2540   -7.2109 hc      2  DGE        0.0243
     90 H26        -7.4328   -2.7340   -6.2909 hc      2  DGE        0.0243
     91 H27        -8.2728   -2.5040   -7.8309 hc      2  DGE        0.0243
     92 C           4.5122   -1.9540    4.7771 ca      3  DGE       -0.0315
     93 C5          3.1152   -1.9420    4.6991 ca      3  DGE        0.0750
     94 C6          2.3622   -2.1600    5.8591 ca      3  DGE       -0.0315
     95 C7          2.9982   -2.4070    7.0831 ca      3  DGE       -0.0556
     96 C8          5.1542   -2.2000    6.0081 ca      3  DGE       -0.0556
     97 C9          4.4092   -2.4370    7.1811 ca      3  DGE       -0.0378
     98 C10         5.1522   -2.7190    8.5131 c3      3  DGE        0.0146
     99 C11         5.9922   -1.5090    8.9771 ca      3  DGE       -0.0378
    100 C12         5.7432   -0.2080    8.4831 ca      3  DGE       -0.0556
    101 C13         6.4842    0.8950    8.9531 ca      3  DGE       -0.0315
    102 C14         7.4682    0.7250    9.9391 ca      3  DGE        0.0750
    103 C15         7.7092   -0.5640   10.4481 ca      3  DGE       -0.0315
    104 C16         6.9712   -1.6590    9.9741 ca      3  DGE       -0.0556
    105 O           8.1352    1.8400   10.3851 os      3  DGE       -0.3434
    106 C17         9.1902    1.7900   11.3711 c3      3  DGE        0.0790
    107 C3          9.6892    3.2310   11.6301 c3      3  DGE        0.0750
    108 H          10.0242    1.1670   11.0171 h1      3  DGE        0.0600
    109 H1          8.7972    1.3710   12.3011 h1      3  DGE        0.0600
    110 C1         10.5222    3.3190   12.9241 c3      3  DGE       -0.0367
    111 H2          9.9272    2.9950   13.7911 hc      3  DGE        0.0258
    112 H3         10.8562    4.3440   13.0991 hc      3  DGE        0.0258
    113 H4         11.4002    2.6680   12.8611 hc      3  DGE        0.0258
    114 O1         10.4912    3.6750   10.5341 oh      3  DGE       -0.3910
    115 H5          8.8122    3.8900   11.7301 h1      3  DGE        0.0622
    116 O2          2.5382   -1.7130    3.4591 os      3  DGE       -0.3434
    117 C18         1.1122   -1.6700    3.2501 c3      3  DGE        0.0805
    118 C4          0.8442   -1.4370    1.7481 c3      3  DGE        0.0905
    119 H6          0.6532   -0.8700    3.8421 h1      3  DGE        0.0600
    120 H7          0.6632   -2.6280    3.5571 h1      3  DGE        0.0600
    121 O3          1.2562   -0.1200    1.3901 oh      3  DGE       -0.3894
    122 C2         -0.6508   -1.6150    1.4101 c3      3  DGE        0.0270
    123 H8          1.4212   -2.1810    1.1761 h1      3  DGE        0.0639
    124 H10        -0.9848   -2.6260    1.6531 h1      3  DGE        0.0459
    125 H11        -1.2688   -0.8990    1.9701 h1      3  DGE        0.0459
    126 H12         1.2712   -2.1560    5.8271 ha      3  DGE        0.0650
    127 H13         5.1102   -1.7790    3.8851 ha      3  DGE        0.0650
    128 H14         6.2402   -2.1890    6.0401 ha      3  DGE        0.0627
    129 H15         2.3692   -2.5710    7.9551 ha      3  DGE        0.0627
    130 H16         4.9722   -0.0180    7.7421 ha      3  DGE        0.0627
    131 H17         6.2852    1.8890    8.5651 ha      3  DGE        0.0650
    132 H18         8.4552   -0.7230   11.2271 ha      3  DGE        0.0650
    133 H19         7.1692   -2.6370   10.4111 ha      3  DGE        0.0627
    134 H20         2.1882   -0.0330    1.6671 ho      3  DGE        0.2106
    135 H21        10.6102    4.6420   10.6221 ho      3  DGE        0.2106
    136 C19         6.0662   -3.9610    8.2691 c3      3  DGE       -0.0517
    137 H22         6.9042   -3.7200    7.6131 hc      3  DGE        0.0243
    138 H23         5.4882   -4.7780    7.8061 hc      3  DGE        0.0243
    139 H24         6.4782   -4.3590    9.2031 hc      3  DGE        0.0243
    140 C20         4.1842   -3.0830    9.6671 c3      3  DGE       -0.0517
    141 H25         3.5192   -2.2440    9.9121 hc      3  DGE        0.0243
    142 H26         4.7372   -3.3390   10.5781 hc      3  DGE        0.0243
    143 H27         3.5602   -3.9540    9.4161 hc      3  DGE        0.0243
@<TRIPOS>BOND
     1     1     2    1
     2     2     3    1
     3     3     4    1
     4     4     5    1
     5     5     6    1
     6     1     6    1
     7     6     7    1
     8     7     8    1
     9     8     9    1
    10     9    10    1
    11    10    11    1
    12    11    12    1
    13    12    13    1
    14     8    13    1
    15    11    14    1
    16     3    15    1
    17     1    16    1
    18     1    17    1
    19     2    18    1
    20     2    19    1
    21     3    20    1
    22     4    21    1
    23     4    22    1
    24     5    23    1
    25     5    24    1
    26     6    25    1
    27     7    26    1
    28     7    27    1
    29     8    28    1
    30     9    29    1
    31     9    30    1
    32    10    31    1
    33    10    32    1
    34    11    33    1
    35    12    34    1
    36    12    35    1
    37    13    36    1
    38    13    37    1
    39    14    38    1
    40    14    39    1
    41    40    41   ar
    42    41    42   ar
    43    42    43   ar
    44    40    44   ar
    45    44    45   ar
    46    45    43   ar
    47    45    46    1
    48    46    47    1
    49    47    48   ar
    50    48    49   ar
    51    49    50   ar
    52    50    51   ar
    53    51    52   ar
    54    47    52   ar
    55    50    53    1
    56    53    54    1
    57    54    55    1
    58    54    56    1
    59    54    57    1
    60    55    58    1
    61    58    59    1
    62    58    60    1
    63    55    61    1
    64    55    62    1
    65    41    63    1
    66    63    64    1
    67    64    65    1
    68    64    66    1
    69    64    67    1
    70    65    68    1
    71    65    69    1
    72    65    70    1
    73    69    71    1
    74    69    72    1
    75    69    73    1
    76    42    74    1
    77    40    75    1
    78    44    76    1
    79    43    77    1
    80    48    78    1
    81    49    79    1
    82    51    80    1
    83    52    81    1
    84    68    82    1
    85    61    83    1
    86    46    84    1
    87    84    85    1
    88    84    86    1
    89    84    87    1
    90    46    88    1
    91    88    89    1
    92    88    90    1
    93    88    91    1
    94    15    58    1
    95    92    93   ar
    96    93    94   ar
    97    94    95   ar
    98    92    96   ar
    99    96    97   ar
   100    97    95   ar
   101    97    98    1
   102    98    99    1
   103    99   100   ar
   104   100   101   ar
   105   101   102   ar
   106   102   103   ar
   107   103   104   ar
   108    99   104   ar
   109   102   105    1
   110   105   106    1
   111   106   107    1
   112   106   108    1
   113   106   109    1
   114   107   110    1
   115   110   111    1
   116   110   112    1
   117   110   113    1
   118   107   114    1
   119   107   115    1
   120    93   116    1
   121   116   117    1
   122   117   118    1
   123   117   119    1
   124   117   120    1
   125   118   121    1
   126   118   122    1
   127   118   123    1
   128   122   124    1
   129   122   125    1
   130    94   126    1
   131    92   127    1
   132    96   128    1
   133    95   129    1
   134   100   130    1
   135   101   131    1
   136   103   132    1
   137   104   133    1
   138   121   134    1
   139   114   135    1
   140    98   136    1
   141   136   137    1
   142   136   138    1
   143   136   139    1
   144    98   140    1
   145   140   141    1
   146   140   142    1
   147   140   143    1
   148    15   122    1
@<TRIPOS>SUBSTRUCTURE
     1 PAC          1 RESIDUE
     2 DGE          1 RESIDUE
     3 DGE          1 RESIDUE