@<TRIPOS>MOLECULE
PACDGE2-1
   143   148  3  0  0
SMALL
gas

@<TRIPOS>ATOM
      1 C          -2.9831   -1.4419   -1.9480 c3      1  PAC       -0.0490
      2 C3         -2.6131   -2.9319   -1.7680 c3      1  PAC       -0.0375
      3 C1         -1.4031   -3.3319   -2.6270 c3      1  PAC        0.0068
      4 C4         -0.1931   -2.3919   -2.3570 c3      1  PAC       -0.0375
      5 C5         -0.5831   -0.9119   -2.5670 c3      1  PAC       -0.0490
      6 C6         -1.7931   -0.4819   -1.6980 c3      1  PAC       -0.0411
      7 C7         -1.4631   -0.3619   -0.1770 c3      1  PAC       -0.0476
      8 C8         -0.3431    0.6681    0.2030 c3      1  PAC       -0.0411
      9 C9         -0.6431    2.1181   -0.2470 c3      1  PAC       -0.0490
     10 C10        -1.8031    2.7681    0.5420 c3      1  PAC       -0.0375
     11 C2         -1.5731    2.7281    2.0720 c3      1  PAC        0.0068
     12 C11        -1.2131    1.2981    2.5620 c3      1  PAC       -0.0375
     13 C12        -0.0731    0.6481    1.7320 c3      1  PAC       -0.0490
     14 N2         -0.5231    3.6781    2.4530 n3      1  PAC       -0.3113
     15 N1         -1.0731   -4.7619   -2.4080 n3      1  PAC       -0.3113
     16 H          -3.8231   -1.1819   -1.2780 hc      1  PAC        0.0270
     17 H1         -3.3531   -1.2919   -2.9670 hc      1  PAC        0.0270
     18 H2         -3.4831   -3.5519   -2.0380 hc      1  PAC        0.0283
     19 H3         -2.4031   -3.1319   -0.7080 hc      1  PAC        0.0283
     20 H4         -1.6931   -3.2019   -3.6780 h1      1  PAC        0.0465
     21 H5          0.6369   -2.6319   -3.0380 hc      1  PAC        0.0283
     22 H6          0.1769   -2.5419   -1.3370 hc      1  PAC        0.0283
     23 H7         -0.8431   -0.7719   -3.6270 hc      1  PAC        0.0270
     24 H8          0.2869   -0.2719   -2.3880 hc      1  PAC        0.0270
     25 H9         -2.1231    0.5081   -2.0470 hc      1  PAC        0.0303
     26 H10        -1.1731   -1.3419    0.2030 hc      1  PAC        0.0272
     27 H11        -2.3831   -0.1019    0.3430 hc      1  PAC        0.0272
     28 H12         0.5869    0.3481   -0.2780 hc      1  PAC        0.0303
     29 H13        -0.8531    2.1681   -1.3270 hc      1  PAC        0.0270
     30 H14         0.2669    2.7281   -0.0980 hc      1  PAC        0.0270
     31 H15        -2.7431    2.2481    0.3020 hc      1  PAC        0.0283
     32 H16        -1.9431    3.8081    0.2120 hc      1  PAC        0.0283
     33 H17        -2.5031    3.0381    2.5620 h1      1  PAC        0.0465
     34 H18        -2.1131    0.6681    2.5020 hc      1  PAC        0.0283
     35 H19        -0.9331    1.3281    3.6230 hc      1  PAC        0.0283
     36 H20         0.0869   -0.3819    2.0830 hc      1  PAC        0.0270
     37 H21         0.8569    1.1881    1.9330 hc      1  PAC        0.0270
     38 H22         0.3569    3.3981    2.0330 hn      1  PAC        0.1226
     39 H24        -0.9131   -4.9119   -1.4070 hn      1  PAC        0.1226
     40 C          -4.9631   -6.1519  -13.4380 ca      2  DGE       -0.0315
     41 C5         -5.7831   -5.1419  -13.9670 ca      2  DGE        0.0750
     42 C6         -6.7531   -4.5419  -13.1480 ca      2  DGE       -0.0315
     43 C7         -6.8931   -4.9419  -11.8070 ca      2  DGE       -0.0556
     44 C8         -5.1031   -6.5519  -12.0980 ca      2  DGE       -0.0556
     45 C9         -6.0831   -5.9619  -11.2580 ca      2  DGE       -0.0378
     46 C10        -6.2231   -6.4619   -9.7970 c3      2  DGE        0.0146
     47 C11        -4.9531   -6.1719   -8.9670 ca      2  DGE       -0.0378
     48 C12        -4.0131   -5.1819   -9.3570 ca      2  DGE       -0.0556
     49 C13        -2.8931   -4.9019   -8.5680 ca      2  DGE       -0.0315
     50 C14        -2.6831   -5.5819   -7.3570 ca      2  DGE        0.0750
     51 C15        -3.6131   -6.5519   -6.9470 ca      2  DGE       -0.0315
     52 C16        -4.7331   -6.8419   -7.7470 ca      2  DGE       -0.0556
     53 O          -1.5831   -5.2419   -6.5980 os      2  DGE       -0.3434
     54 C17        -1.3131   -5.8219   -5.2980 c3      2  DGE        0.0805
     55 C3         -0.0531   -5.1519   -4.7070 c3      2  DGE        0.0903
     56 H          -1.1531   -6.9019   -5.3780 h1      2  DGE        0.0600
     57 H1         -2.1731   -5.6419   -4.6470 h1      2  DGE        0.0600
     58 C1          0.0469   -5.3419   -3.1780 c3      2  DGE        0.0238
     59 H3          0.9869   -4.9119   -2.8280 h1      2  DGE        0.0456
     60 H2          0.0869   -6.4219   -2.9670 h1      2  DGE        0.0456
     61 O1          1.1169   -5.7019   -5.3170 oh      2  DGE       -0.3894
     62 H5         -0.1031   -4.0719   -4.9280 h1      2  DGE        0.0639
     63 O2         -5.6131   -4.8019  -15.2970 os      2  DGE       -0.3434
     64 C18        -6.4031   -3.7919  -15.9470 c3      2  DGE        0.0790
     65 C4         -5.9531   -3.7019  -17.4270 c3      2  DGE        0.0750
     66 H6         -6.2631   -2.8119  -15.4570 h1      2  DGE        0.0600
     67 H7         -7.4631   -4.0619  -15.9080 h1      2  DGE        0.0600
     68 O3         -4.6331   -3.1719  -17.4970 oh      2  DGE       -0.3910
     69 C2         -6.9031   -2.8119  -18.2470 c3      2  DGE       -0.0367
     70 H8         -5.9731   -4.7119  -17.8480 h1      2  DGE        0.0622
     71 H9         -7.9331   -3.2119  -18.2270 hc      2  DGE        0.0258
     72 H10        -6.5831   -2.7719  -19.2970 hc      2  DGE        0.0258
     73 H11        -6.9331   -1.7919  -17.8480 hc      2  DGE        0.0258
     74 H12        -7.3931   -3.7619  -13.5270 ha      2  DGE        0.0650
     75 H13        -4.2131   -6.6219  -14.0570 ha      2  DGE        0.0650
     76 H14        -4.4431   -7.3219  -11.7070 ha      2  DGE        0.0627
     77 H15        -7.6531   -4.4519  -11.2070 ha      2  DGE        0.0627
     78 H16        -4.1531   -4.6119  -10.2680 ha      2  DGE        0.0627
     79 H17        -2.1831   -4.1419   -8.8770 ha      2  DGE        0.0650
     80 H18        -3.4831   -7.0919   -6.0080 ha      2  DGE        0.0650
     81 H19        -5.4431   -7.5819   -7.3880 ha      2  DGE        0.0627
     82 H20        -4.0831   -3.7219  -16.9270 ho      2  DGE        0.2106
     83 H21         1.8469   -5.0919   -5.1380 ho      2  DGE        0.2106
     84 C19        -6.5231   -7.9819   -9.8570 c3      2  DGE       -0.0517
     85 H22        -5.6331   -8.5519  -10.1780 hc      2  DGE        0.0243
     86 H23        -7.3231   -8.1919  -10.5680 hc      2  DGE        0.0243
     87 H24        -6.8431   -8.3819   -8.8870 hc      2  DGE        0.0243
     88 C20        -7.4131   -5.7919   -9.0570 c3      2  DGE       -0.0517
     89 H25        -7.2631   -4.7119   -8.9570 hc      2  DGE        0.0243
     90 H26        -7.5231   -6.1919   -8.0370 hc      2  DGE        0.0243
     91 H27        -8.3631   -5.9619   -9.5780 hc      2  DGE        0.0243
     92 C           4.8429    3.9251    8.0450 ca      3  DGE       -0.0315
     93 C5          3.4509    3.8391    7.9350 ca      3  DGE        0.0750
     94 C6          2.6799    3.6881    9.0950 ca      3  DGE       -0.0315
     95 C7          3.2959    3.6041   10.3510 ca      3  DGE       -0.0556
     96 C8          5.4639    3.8451    9.3090 ca      3  DGE       -0.0556
     97 C9          4.7019    3.6761   10.4830 ca      3  DGE       -0.0378
     98 C10         5.4239    3.5751   11.8530 c3      3  DGE        0.0146
     99 C11         6.1719    4.8771   12.2110 ca      3  DGE       -0.0378
    100 C12         5.8559    6.1051   11.5850 ca      3  DGE       -0.0556
    101 C13         6.5129    7.2951   11.9580 ca      3  DGE       -0.0315
    102 C14         7.4769    7.2871   12.9780 ca      3  DGE        0.0750
    103 C15         7.7839    6.0721   13.6190 ca      3  DGE       -0.0315
    104 C16         7.1289    4.8901   13.2400 ca      3  DGE       -0.0556
    105 O           8.0599    8.4811   13.3250 os      3  DGE       -0.3434
    106 C17         9.0869    8.5971   14.3340 c3      3  DGE        0.0790
    107 C3          9.4879   10.0861   14.4580 c3      3  DGE        0.0750
    108 H           9.9679    7.9981   14.0630 h1      3  DGE        0.0600
    109 H1          8.6949    8.2471   15.2920 h1      3  DGE        0.0600
    110 C1         10.2759   10.3551   15.7560 c3      3  DGE       -0.0367
    111 H2          9.6779   10.0801   16.6370 hc      3  DGE        0.0258
    112 H3         10.5399   11.4121   15.8340 hc      3  DGE        0.0258
    113 H4         11.1939    9.7601   15.7770 hc      3  DGE        0.0258
    114 O1         10.2909   10.4721   13.3420 oh      3  DGE       -0.3910
    115 H5          8.5659   10.6861   14.4780 h1      3  DGE        0.0622
    116 O2          2.8969    3.9071    6.6660 os      3  DGE       -0.3434
    117 C18         1.4769    3.8361    6.4230 c3      3  DGE        0.0805
    118 C4          1.2379    3.9021    4.8990 c3      3  DGE        0.0903
    119 H6          0.9519    4.6581    6.9210 h1      3  DGE        0.0600
    120 H7          1.0809    2.8861    6.8140 h1      3  DGE        0.0600
    121 O3          1.5769    5.2011    4.4200 oh      3  DGE       -0.3894
    122 C2         -0.2331    3.5951    4.5480 c3      3  DGE        0.0238
    123 H8          1.8769    3.1441    4.4180 h1      3  DGE        0.0639
    124 H10        -0.5171    2.5981    4.8870 h1      3  DGE        0.0456
    125 H11        -0.9101    4.3211    5.0200 h1      3  DGE        0.0456
    126 H12         1.5929    3.6171    9.0380 ha      3  DGE        0.0650
    127 H13         5.4549    4.0511    7.1540 ha      3  DGE        0.0650
    128 H14         6.5459    3.9291    9.3630 ha      3  DGE        0.0627
    129 H15         2.6539    3.4861   11.2210 ha      3  DGE        0.0627
    130 H16         5.1039    6.1651   10.8070 ha      3  DGE        0.0627
    131 H17         6.2629    8.2301   11.4680 ha      3  DGE        0.0650
    132 H18         8.5149    6.0391   14.4260 ha      3  DGE        0.0650
    133 H19         7.3759    3.9751   13.7770 ha      3  DGE        0.0627
    134 H20         2.4939    5.3761    4.7080 ho      3  DGE        0.2106
    135 H21        10.3469   11.4481   13.3360 ho      3  DGE        0.2106
    136 C19         6.4189    2.3781   11.7540 c3      3  DGE       -0.0517
    137 H22         7.2539    2.6031   11.0890 hc      3  DGE        0.0243
    138 H23         5.9069    1.4831   11.3630 hc      3  DGE        0.0243
    139 H24         6.8289    2.1011   12.7330 hc      3  DGE        0.0243
    140 C20         4.4469    3.2641   13.0150 c3      3  DGE       -0.0517
    141 H25         3.7239    4.0781   13.1600 hc      3  DGE        0.0243
    142 H26         4.9889    3.1361   13.9590 hc      3  DGE        0.0243
    143 H27         3.8859    2.3341   12.8390 hc      3  DGE        0.0243
@<TRIPOS>BOND
     1     1     2    1
     2     2     3    1
     3     3     4    1
     4     4     5    1
     5     5     6    1
     6     1     6    1
     7     6     7    1
     8     7     8    1
     9     8     9    1
    10     9    10    1
    11    10    11    1
    12    11    12    1
    13    12    13    1
    14     8    13    1
    15    11    14    1
    16     3    15    1
    17     1    16    1
    18     1    17    1
    19     2    18    1
    20     2    19    1
    21     3    20    1
    22     4    21    1
    23     4    22    1
    24     5    23    1
    25     5    24    1
    26     6    25    1
    27     7    26    1
    28     7    27    1
    29     8    28    1
    30     9    29    1
    31     9    30    1
    32    10    31    1
    33    10    32    1
    34    11    33    1
    35    12    34    1
    36    12    35    1
    37    13    36    1
    38    13    37    1
    39    14    38    1
    40    15    39    1
    41    40    41   ar
    42    41    42   ar
    43    42    43   ar
    44    40    44   ar
    45    44    45   ar
    46    45    43   ar
    47    45    46    1
    48    46    47    1
    49    47    48   ar
    50    48    49   ar
    51    49    50   ar
    52    50    51   ar
    53    51    52   ar
    54    47    52   ar
    55    50    53    1
    56    53    54    1
    57    54    55    1
    58    54    56    1
    59    54    57    1
    60    55    58    1
    61    58    59    1
    62    58    60    1
    63    55    61    1
    64    55    62    1
    65    41    63    1
    66    63    64    1
    67    64    65    1
    68    64    66    1
    69    64    67    1
    70    65    68    1
    71    65    69    1
    72    65    70    1
    73    69    71    1
    74    69    72    1
    75    69    73    1
    76    42    74    1
    77    40    75    1
    78    44    76    1
    79    43    77    1
    80    48    78    1
    81    49    79    1
    82    51    80    1
    83    52    81    1
    84    68    82    1
    85    61    83    1
    86    46    84    1
    87    84    85    1
    88    84    86    1
    89    84    87    1
    90    46    88    1
    91    88    89    1
    92    88    90    1
    93    88    91    1
    94    15    58    1
    95    92    93   ar
    96    93    94   ar
    97    94    95   ar
    98    92    96   ar
    99    96    97   ar
   100    97    95   ar
   101    97    98    1
   102    98    99    1
   103    99   100   ar
   104   100   101   ar
   105   101   102   ar
   106   102   103   ar
   107   103   104   ar
   108    99   104   ar
   109   102   105    1
   110   105   106    1
   111   106   107    1
   112   106   108    1
   113   106   109    1
   114   107   110    1
   115   110   111    1
   116   110   112    1
   117   110   113    1
   118   107   114    1
   119   107   115    1
   120    93   116    1
   121   116   117    1
   122   117   118    1
   123   117   119    1
   124   117   120    1
   125   118   121    1
   126   118   122    1
   127   118   123    1
   128   122   124    1
   129   122   125    1
   130    94   126    1
   131    92   127    1
   132    96   128    1
   133    95   129    1
   134   100   130    1
   135   101   131    1
   136   103   132    1
   137   104   133    1
   138   121   134    1
   139   114   135    1
   140    98   136    1
   141   136   137    1
   142   136   138    1
   143   136   139    1
   144    98   140    1
   145   140   141    1
   146   140   142    1
   147   140   143    1
   148    14   122    1
@<TRIPOS>SUBSTRUCTURE
     1 PAC          1 RESIDUE
     2 DGE          1 RESIDUE
     3 DGE          1 RESIDUE