@<TRIPOS>MOLECULE
PACDGE2-6
   143   148  3  0  0
SMALL
gas

@<TRIPOS>ATOM
      1 C           1.0110    5.6378   -1.5871 c3      1  PAC       -0.0489
      2 C3          1.3610    4.1378   -1.4271 c3      1  PAC       -0.0373
      3 C1          2.5710    3.7378   -2.3071 c3      1  PAC        0.0098
      4 C4          3.8010    4.6378   -1.9771 c3      1  PAC       -0.0373
      5 C5          3.4410    6.1278   -2.1871 c3      1  PAC       -0.0489
      6 C6          2.2210    6.5878   -1.3371 c3      1  PAC       -0.0411
      7 C7          2.5310    6.7278    0.1829 c3      1  PAC       -0.0476
      8 C8          3.6410    7.7578    0.5729 c3      1  PAC       -0.0411
      9 C9          3.3410    9.2078    0.1029 c3      1  PAC       -0.0490
     10 C10         2.1810    9.8578    0.8829 c3      1  PAC       -0.0377
     11 C2          2.4110    9.8378    2.4129 c3      1  PAC        0.0039
     12 C11         2.7610    8.4078    2.9129 c3      1  PAC       -0.0377
     13 C12         3.9010    7.7478    2.1029 c3      1  PAC       -0.0490
     14 N2          3.4610   10.7878    2.7929 n3      1  PAC       -0.3277
     15 N1          2.8410    2.2878   -2.1771 n3      1  PAC       -0.2951
     16 H           0.1810    5.8978   -0.9271 hc      1  PAC        0.0270
     17 H1          0.6510    5.7978   -2.6071 hc      1  PAC        0.0270
     18 H2          0.4910    3.5378   -1.7071 hc      1  PAC        0.0283
     19 H3          1.5810    3.9178   -0.3771 hc      1  PAC        0.0283
     20 H4          2.3010    3.9278   -3.3471 h1      1  PAC        0.0467
     21 H5          4.6410    4.3878   -2.6371 hc      1  PAC        0.0283
     22 H6          4.1310    4.4678   -0.9471 hc      1  PAC        0.0283
     23 H7          3.2110    6.2878   -3.2471 hc      1  PAC        0.0270
     24 H8          4.3210    6.7578   -1.9871 hc      1  PAC        0.0270
     25 H9          1.9110    7.5678   -1.7071 hc      1  PAC        0.0303
     26 H10         2.8210    5.7478    0.5829 hc      1  PAC        0.0272
     27 H11         1.6010    6.9878    0.6929 hc      1  PAC        0.0272
     28 H12         4.5710    7.4378    0.0929 hc      1  PAC        0.0303
     29 H13         3.1410    9.2478   -0.9771 hc      1  PAC        0.0270
     30 H14         4.2510    9.8178    0.2529 hc      1  PAC        0.0270
     31 H15         1.2410    9.3378    0.6529 hc      1  PAC        0.0283
     32 H16         2.0410   10.8978    0.5529 hc      1  PAC        0.0283
     33 H17         1.4810   10.1478    2.9029 h1      1  PAC        0.0462
     34 H18         1.8610    7.7778    2.8529 hc      1  PAC        0.0283
     35 H19         3.0410    8.4478    3.9729 hc      1  PAC        0.0283
     36 H20         4.0610    6.7278    2.4529 hc      1  PAC        0.0270
     37 H21         4.8310    8.2878    2.3029 hc      1  PAC        0.0270
     38 H22         4.3410   10.4978    2.3629 hn      1  PAC        0.1187
     39 H23         3.6010   10.7478    3.8029 hn      1  PAC        0.1187
     40 C           2.4610   -4.2122   -2.8071 ca      2  DGE       -0.0315
     41 C5          2.9010   -3.0722   -2.1071 ca      2  DGE        0.0750
     42 C6          2.9710   -3.1122   -0.7071 ca      2  DGE       -0.0315
     43 C7          2.5910   -4.2722   -0.0071 ca      2  DGE       -0.0556
     44 C8          2.0810   -5.3722   -2.1071 ca      2  DGE       -0.0556
     45 C9          2.1310   -5.4222   -0.6971 ca      2  DGE       -0.0378
     46 C10         1.6710   -6.7022    0.0329 c3      2  DGE        0.0146
     47 C11         2.5810   -7.9122   -0.2871 ca      2  DGE       -0.0378
     48 C12         3.8910   -7.7422   -0.7871 ca      2  DGE       -0.0556
     49 C13         4.7210   -8.8522   -1.0371 ca      2  DGE       -0.0315
     50 C14         4.2710  -10.1522   -0.7571 ca      2  DGE        0.0750
     51 C15         2.9810  -10.3322   -0.2471 ca      2  DGE       -0.0315
     52 C16         2.1510   -9.2322   -0.0071 ca      2  DGE       -0.0556
     53 O           5.1410  -11.1922   -0.9971 os      2  DGE       -0.3434
     54 C17         4.8010  -12.5722   -0.7471 c3      2  DGE        0.0790
     55 C3          6.0110  -13.4622   -1.0971 c3      2  DGE        0.0750
     56 H           3.9310  -12.8722   -1.3471 h1      2  DGE        0.0600
     57 H1          4.5510  -12.7022    0.3129 h1      2  DGE        0.0600
     58 C1          5.8910  -14.8622   -0.4771 c3      2  DGE       -0.0367
     59 H2          5.8310  -14.8022    0.6129 hc      2  DGE        0.0258
     60 H3          6.7610  -15.4822   -0.7271 hc      2  DGE        0.0258
     61 H4          4.9910  -15.3722   -0.8371 hc      2  DGE        0.0258
     62 O1          6.1210  -13.5922   -2.5171 oh      2  DGE       -0.3910
     63 H5          6.9210  -12.9822   -0.7071 h1      2  DGE        0.0622
     64 O2          3.2410   -1.9622   -2.8471 os      2  DGE       -0.3434
     65 C18         3.6010   -0.6922   -2.2671 c3      2  DGE        0.0805
     66 C4          3.7810    0.3078   -3.4271 c3      2  DGE        0.0905
     67 H6          4.5310   -0.7722   -1.6971 h1      2  DGE        0.0600
     68 H7          2.8010   -0.3422   -1.5971 h1      2  DGE        0.0600
     69 O3          4.9110   -0.0722   -4.2071 oh      2  DGE       -0.3894
     70 C2          3.9710    1.7778   -2.9771 c3      2  DGE        0.0270
     71 H8          2.8710    0.2678   -4.0471 h1      2  DGE        0.0639
     72 H10         4.0710    2.3778   -3.8871 h1      2  DGE        0.0459
     73 H11         4.9010    1.8778   -2.4071 h1      2  DGE        0.0459
     74 H12         3.3210   -2.2522   -0.1471 ha      2  DGE        0.0650
     75 H13         2.4110   -4.1922   -3.8871 ha      2  DGE        0.0650
     76 H14         1.7510   -6.2322   -2.6671 ha      2  DGE        0.0627
     77 H15         2.6610   -4.2522    1.0729 ha      2  DGE        0.0627
     78 H16         4.2810   -6.7522   -0.9971 ha      2  DGE        0.0627
     79 H17         5.7210   -8.6922   -1.4271 ha      2  DGE        0.0650
     80 H18         2.6110  -11.3222   -0.0071 ha      2  DGE        0.0650
     81 H19         1.1610   -9.4122    0.4129 ha      2  DGE        0.0627
     82 H20         4.7710   -1.0022   -4.4571 ho      2  DGE        0.2106
     83 H21         6.9910  -13.9922   -2.7071 ho      2  DGE        0.2106
     84 C19         0.2010   -6.9822   -0.3971 c3      2  DGE       -0.0517
     85 H22         0.1410   -7.3222   -1.4471 hc      2  DGE        0.0243
     86 H23        -0.4090   -6.0722   -0.3171 hc      2  DGE        0.0243
     87 H24        -0.2790   -7.7422    0.2229 hc      2  DGE        0.0243
     88 C20         1.6610   -6.5422    1.5829 c3      2  DGE       -0.0517
     89 H25         2.6710   -6.3622    1.9629 hc      2  DGE        0.0243
     90 H26         1.2810   -7.4422    2.0729 hc      2  DGE        0.0243
     91 H27         1.0210   -5.7022    1.8929 hc      2  DGE        0.0243
     92 C          -7.8820    1.4378    2.9179 ca      3  DGE       -0.0315
     93 C5         -8.8860    0.8098    2.1729 ca      3  DGE        0.0750
     94 C6         -8.9330    1.0038    0.7869 ca      3  DGE       -0.0315
     95 C7         -7.9990    1.8328    0.1529 ca      3  DGE       -0.0556
     96 C8         -6.9380    2.2698    2.2819 ca      3  DGE       -0.0556
     97 C9         -6.9830    2.4868    0.8889 ca      3  DGE       -0.0378
     98 C10        -5.9370    3.4228    0.2289 c3      3  DGE        0.0146
     99 C11        -4.5010    2.8718    0.3609 ca      3  DGE       -0.0378
    100 C12        -4.2590    1.5078    0.6429 ca      3  DGE       -0.0556
    101 C13        -2.9420    1.0078    0.7119 ca      3  DGE       -0.0315
    102 C14        -1.8470    1.8528    0.4739 ca      3  DGE        0.0750
    103 C15        -2.0800    3.2068    0.1729 ca      3  DGE       -0.0315
    104 C16        -3.3930    3.6988    0.1109 ca      3  DGE       -0.0556
    105 O          -0.5870    1.3048    0.5189 os      3  DGE       -0.3434
    106 C17         0.6180    2.0748    0.3249 c3      3  DGE        0.0805
    107 C3          1.8330    1.1228    0.4319 c3      3  DGE        0.0905
    108 H           0.7010    2.8658    1.0839 h1      3  DGE        0.0600
    109 H1          0.6020    2.5308   -0.6681 h1      3  DGE        0.0600
    110 C1          3.1110    1.7678   -0.1401 c3      3  DGE        0.0270
    111 H3          3.9560    1.0778   -0.0681 h1      3  DGE        0.0459
    112 H2          3.3570    2.6828    0.4079 h1      3  DGE        0.0459
    113 O1          2.0620    0.7738    1.7969 oh      3  DGE       -0.3894
    114 H5          1.6110    0.2108   -0.1451 h1      3  DGE        0.0639
    115 O2         -9.7970    0.0168    2.8539 os      3  DGE       -0.3434
    116 C18       -10.8720   -0.6872    2.1989 c3      3  DGE        0.0790
    117 C4        -11.6990   -1.4262    3.2719 c3      3  DGE        0.0750
    118 H6        -10.4830   -1.4022    1.4659 h1      3  DGE        0.0600
    119 H7        -11.5180    0.0318    1.6699 h1      3  DGE        0.0600
    120 O3        -10.9220   -2.4822    3.8279 oh      3  DGE       -0.3910
    121 C2        -13.0000   -2.0052    2.6789 c3      3  DGE       -0.0367
    122 H8        -11.9680   -0.7012    4.0579 h1      3  DGE        0.0622
    123 H9        -13.6260   -1.2102    2.2669 hc      3  DGE        0.0258
    124 H10       -13.5790   -2.5182    3.4549 hc      3  DGE        0.0258
    125 H11       -12.7800   -2.7262    1.8779 hc      3  DGE        0.0258
    126 H12        -9.7060    0.5268    0.1809 ha      3  DGE        0.0650
    127 H13        -7.8270    1.2908    3.9939 ha      3  DGE        0.0650
    128 H14        -6.1620    2.7328    2.8849 ha      3  DGE        0.0627
    129 H15        -8.0780    1.9518   -0.9251 ha      3  DGE        0.0627
    130 H16        -5.0730    0.8068    0.8059 ha      3  DGE        0.0627
    131 H17        -2.7700   -0.0412    0.9319 ha      3  DGE        0.0650
    132 H18        -1.2490    3.8818   -0.0331 ha      3  DGE        0.0650
    133 H19        -3.5330    4.7478   -0.1491 ha      3  DGE        0.0627
    134 H20       -10.0890   -2.0812    4.1439 ho      3  DGE        0.2106
    135 H21         2.6840    0.0188    1.8129 ho      3  DGE        0.2106
    136 C19        -6.0600    4.8098    0.9319 c3      3  DGE       -0.0517
    137 H22        -5.6860    4.7758    1.9569 hc      3  DGE        0.0243
    138 H23        -7.1140    5.1358    0.9589 hc      3  DGE        0.0243
    139 H24        -5.5040    5.5918    0.4019 hc      3  DGE        0.0243
    140 C20        -6.2120    3.6488   -1.2801 c3      3  DGE       -0.0517
    141 H25        -6.1220    2.7128   -1.8481 hc      3  DGE        0.0243
    142 H26        -5.4980    4.3608   -1.7071 hc      3  DGE        0.0243
    143 H27        -7.2180    4.0598   -1.4541 hc      3  DGE        0.0243
@<TRIPOS>BOND
     1     1     2    1
     2     2     3    1
     3     3     4    1
     4     4     5    1
     5     5     6    1
     6     1     6    1
     7     6     7    1
     8     7     8    1
     9     8     9    1
    10     9    10    1
    11    10    11    1
    12    11    12    1
    13    12    13    1
    14     8    13    1
    15    11    14    1
    16     3    15    1
    17     1    16    1
    18     1    17    1
    19     2    18    1
    20     2    19    1
    21     3    20    1
    22     4    21    1
    23     4    22    1
    24     5    23    1
    25     5    24    1
    26     6    25    1
    27     7    26    1
    28     7    27    1
    29     8    28    1
    30     9    29    1
    31     9    30    1
    32    10    31    1
    33    10    32    1
    34    11    33    1
    35    12    34    1
    36    12    35    1
    37    13    36    1
    38    13    37    1
    39    14    38    1
    40    14    39    1
    41    40    41   ar
    42    41    42   ar
    43    42    43   ar
    44    40    44   ar
    45    44    45   ar
    46    45    43   ar
    47    45    46    1
    48    46    47    1
    49    47    48   ar
    50    48    49   ar
    51    49    50   ar
    52    50    51   ar
    53    51    52   ar
    54    47    52   ar
    55    50    53    1
    56    53    54    1
    57    54    55    1
    58    54    56    1
    59    54    57    1
    60    55    58    1
    61    58    59    1
    62    58    60    1
    63    58    61    1
    64    55    62    1
    65    55    63    1
    66    41    64    1
    67    64    65    1
    68    65    66    1
    69    65    67    1
    70    65    68    1
    71    66    69    1
    72    66    70    1
    73    66    71    1
    74    70    72    1
    75    70    73    1
    76    42    74    1
    77    40    75    1
    78    44    76    1
    79    43    77    1
    80    48    78    1
    81    49    79    1
    82    51    80    1
    83    52    81    1
    84    69    82    1
    85    62    83    1
    86    46    84    1
    87    84    85    1
    88    84    86    1
    89    84    87    1
    90    46    88    1
    91    88    89    1
    92    88    90    1
    93    88    91    1
    94    15    70    1
    95    92    93   ar
    96    93    94   ar
    97    94    95   ar
    98    92    96   ar
    99    96    97   ar
   100    97    95   ar
   101    97    98    1
   102    98    99    1
   103    99   100   ar
   104   100   101   ar
   105   101   102   ar
   106   102   103   ar
   107   103   104   ar
   108    99   104   ar
   109   102   105    1
   110   105   106    1
   111   106   107    1
   112   106   108    1
   113   106   109    1
   114   107   110    1
   115   110   111    1
   116   110   112    1
   117   107   113    1
   118   107   114    1
   119    93   115    1
   120   115   116    1
   121   116   117    1
   122   116   118    1
   123   116   119    1
   124   117   120    1
   125   117   121    1
   126   117   122    1
   127   121   123    1
   128   121   124    1
   129   121   125    1
   130    94   126    1
   131    92   127    1
   132    96   128    1
   133    95   129    1
   134   100   130    1
   135   101   131    1
   136   103   132    1
   137   104   133    1
   138   120   134    1
   139   113   135    1
   140    98   136    1
   141   136   137    1
   142   136   138    1
   143   136   139    1
   144    98   140    1
   145   140   141    1
   146   140   142    1
   147   140   143    1
   148    15   110    1
@<TRIPOS>SUBSTRUCTURE
     1 PAC          1 RESIDUE
     2 DGE          1 RESIDUE
     3 DGE          1 RESIDUE