@<TRIPOS>MOLECULE
PACDGE2-7
   143   148  3  0  0
SMALL
gas

@<TRIPOS>ATOM
      1 C          -4.2782    5.6010   -3.4810 c3      1  PAC       -0.0489
      2 C3         -3.9282    4.1010   -3.3210 c3      1  PAC       -0.0373
      3 C1         -2.7182    3.7010   -4.2010 c3      1  PAC        0.0098
      4 C4         -1.4882    4.6010   -3.8710 c3      1  PAC       -0.0373
      5 C5         -1.8482    6.0910   -4.0810 c3      1  PAC       -0.0489
      6 C6         -3.0682    6.5510   -3.2310 c3      1  PAC       -0.0411
      7 C7         -2.7582    6.6910   -1.7110 c3      1  PAC       -0.0476
      8 C8         -1.6482    7.7210   -1.3210 c3      1  PAC       -0.0411
      9 C9         -1.9482    9.1710   -1.7910 c3      1  PAC       -0.0490
     10 C10        -3.1082    9.8210   -1.0110 c3      1  PAC       -0.0377
     11 C2         -2.8782    9.8010    0.5190 c3      1  PAC        0.0039
     12 C11        -2.5282    8.3710    1.0190 c3      1  PAC       -0.0377
     13 C12        -1.3882    7.7110    0.2090 c3      1  PAC       -0.0490
     14 N2         -1.8282   10.7510    0.8990 n3      1  PAC       -0.3277
     15 N1         -2.4482    2.2510   -4.0710 n3      1  PAC       -0.2951
     16 H          -5.1082    5.8610   -2.8210 hc      1  PAC        0.0270
     17 H1         -4.6382    5.7610   -4.5010 hc      1  PAC        0.0270
     18 H2         -4.7982    3.5010   -3.6010 hc      1  PAC        0.0283
     19 H3         -3.7082    3.8810   -2.2710 hc      1  PAC        0.0283
     20 H4         -2.9882    3.8910   -5.2410 h1      1  PAC        0.0467
     21 H5         -0.6482    4.3510   -4.5310 hc      1  PAC        0.0283
     22 H6         -1.1582    4.4310   -2.8410 hc      1  PAC        0.0283
     23 H7         -2.0782    6.2510   -5.1410 hc      1  PAC        0.0270
     24 H8         -0.9682    6.7210   -3.8810 hc      1  PAC        0.0270
     25 H9         -3.3782    7.5310   -3.6010 hc      1  PAC        0.0303
     26 H10        -2.4682    5.7110   -1.3110 hc      1  PAC        0.0272
     27 H11        -3.6882    6.9510   -1.2010 hc      1  PAC        0.0272
     28 H12        -0.7182    7.4010   -1.8010 hc      1  PAC        0.0303
     29 H13        -2.1482    9.2110   -2.8710 hc      1  PAC        0.0270
     30 H14        -1.0382    9.7810   -1.6410 hc      1  PAC        0.0270
     31 H15        -4.0482    9.3010   -1.2410 hc      1  PAC        0.0283
     32 H16        -3.2482   10.8610   -1.3410 hc      1  PAC        0.0283
     33 H17        -3.8082   10.1110    1.0090 h1      1  PAC        0.0462
     34 H18        -3.4282    7.7410    0.9590 hc      1  PAC        0.0283
     35 H19        -2.2482    8.4110    2.0790 hc      1  PAC        0.0283
     36 H20        -1.2282    6.6910    0.5590 hc      1  PAC        0.0270
     37 H21        -0.4582    8.2510    0.4090 hc      1  PAC        0.0270
     38 H22        -0.9482   10.4610    0.4690 hn      1  PAC        0.1187
     39 H23        -1.6882   10.7110    1.9090 hn      1  PAC        0.1187
     40 C          -2.8282   -4.2490   -4.7010 ca      2  DGE       -0.0315
     41 C5         -2.3882   -3.1090   -4.0010 ca      2  DGE        0.0750
     42 C6         -2.3182   -3.1490   -2.6010 ca      2  DGE       -0.0315
     43 C7         -2.6982   -4.3090   -1.9010 ca      2  DGE       -0.0556
     44 C8         -3.2082   -5.4090   -4.0010 ca      2  DGE       -0.0556
     45 C9         -3.1582   -5.4590   -2.5910 ca      2  DGE       -0.0378
     46 C10        -3.6182   -6.7390   -1.8610 c3      2  DGE        0.0146
     47 C11        -2.7082   -7.9490   -2.1810 ca      2  DGE       -0.0378
     48 C12        -1.3982   -7.7790   -2.6810 ca      2  DGE       -0.0556
     49 C13        -0.5682   -8.8890   -2.9310 ca      2  DGE       -0.0315
     50 C14        -1.0182  -10.1890   -2.6510 ca      2  DGE        0.0750
     51 C15        -2.3082  -10.3690   -2.1410 ca      2  DGE       -0.0315
     52 C16        -3.1382   -9.2690   -1.9010 ca      2  DGE       -0.0556
     53 O          -0.1482  -11.2290   -2.8910 os      2  DGE       -0.3434
     54 C17        -0.4882  -12.6090   -2.6410 c3      2  DGE        0.0790
     55 C3          0.7218  -13.4990   -2.9910 c3      2  DGE        0.0750
     56 H          -1.3582  -12.9090   -3.2410 h1      2  DGE        0.0600
     57 H1         -0.7382  -12.7390   -1.5810 h1      2  DGE        0.0600
     58 C1          0.6018  -14.8990   -2.3710 c3      2  DGE       -0.0367
     59 H2          0.5418  -14.8390   -1.2810 hc      2  DGE        0.0258
     60 H3          1.4718  -15.5190   -2.6210 hc      2  DGE        0.0258
     61 H4         -0.2982  -15.4090   -2.7310 hc      2  DGE        0.0258
     62 O1          0.8318  -13.6290   -4.4110 oh      2  DGE       -0.3910
     63 H5          1.6318  -13.0190   -2.6010 h1      2  DGE        0.0622
     64 O2         -2.0482   -1.9990   -4.7410 os      2  DGE       -0.3434
     65 C18        -1.6882   -0.7290   -4.1610 c3      2  DGE        0.0805
     66 C4         -1.5082    0.2710   -5.3210 c3      2  DGE        0.0905
     67 H6         -0.7582   -0.8090   -3.5910 h1      2  DGE        0.0600
     68 H7         -2.4882   -0.3790   -3.4910 h1      2  DGE        0.0600
     69 O3         -0.3782   -0.1090   -6.1010 oh      2  DGE       -0.3894
     70 C2         -1.3182    1.7410   -4.8710 c3      2  DGE        0.0270
     71 H8         -2.4182    0.2310   -5.9410 h1      2  DGE        0.0639
     72 H10        -1.2182    2.3410   -5.7810 h1      2  DGE        0.0459
     73 H11        -0.3882    1.8410   -4.3010 h1      2  DGE        0.0459
     74 H12        -1.9682   -2.2890   -2.0410 ha      2  DGE        0.0650
     75 H13        -2.8782   -4.2290   -5.7810 ha      2  DGE        0.0650
     76 H14        -3.5382   -6.2690   -4.5610 ha      2  DGE        0.0627
     77 H15        -2.6282   -4.2890   -0.8210 ha      2  DGE        0.0627
     78 H16        -1.0082   -6.7890   -2.8910 ha      2  DGE        0.0627
     79 H17         0.4318   -8.7290   -3.3210 ha      2  DGE        0.0650
     80 H18        -2.6782  -11.3590   -1.9010 ha      2  DGE        0.0650
     81 H19        -4.1282   -9.4490   -1.4810 ha      2  DGE        0.0627
     82 H20        -0.5182   -1.0390   -6.3510 ho      2  DGE        0.2106
     83 H21         1.7018  -14.0290   -4.6010 ho      2  DGE        0.2106
     84 C19        -5.0882   -7.0190   -2.2910 c3      2  DGE       -0.0517
     85 H22        -5.1482   -7.3590   -3.3410 hc      2  DGE        0.0243
     86 H23        -5.6982   -6.1090   -2.2110 hc      2  DGE        0.0243
     87 H24        -5.5682   -7.7790   -1.6710 hc      2  DGE        0.0243
     88 C20        -3.6282   -6.5790   -0.3110 c3      2  DGE       -0.0517
     89 H25        -2.6182   -6.3990    0.0690 hc      2  DGE        0.0243
     90 H26        -4.0082   -7.4790    0.1790 hc      2  DGE        0.0243
     91 H27        -4.2682   -5.7390   -0.0010 hc      2  DGE        0.0243
     92 C           2.8828    0.6840    1.3370 ca      3  DGE       -0.0315
     93 C5          1.4928    0.8140    1.2460 ca      3  DGE        0.0750
     94 C6          0.7058    0.5540    2.3740 ca      3  DGE       -0.0315
     95 C7          1.2988    0.1480    3.5770 ca      3  DGE       -0.0556
     96 C8          3.4828    0.2790    2.5470 ca      3  DGE       -0.0556
     97 C9          2.7008   -0.0010    3.6870 ca      3  DGE       -0.0378
     98 C10         3.3978   -0.4600    4.9950 c3      3  DGE        0.0146
     99 C11         4.3218    0.6330    5.5750 ca      3  DGE       -0.0378
    100 C12         4.1828    1.9890    5.1990 ca      3  DGE       -0.0556
    101 C13         4.9998    2.9830    5.7740 ca      3  DGE       -0.0315
    102 C14         5.9498    2.6480    6.7500 ca      3  DGE        0.0750
    103 C15         6.0808    1.3030    7.1430 ca      3  DGE       -0.0315
    104 C16         5.2678    0.3180    6.5640 ca      3  DGE       -0.0556
    105 O           6.6948    3.6620    7.3020 os      3  DGE       -0.3434
    106 C17         7.7248    3.4410    8.2890 c3      3  DGE        0.0790
    107 C3          8.3318    4.8080    8.6830 c3      3  DGE        0.0750
    108 H           8.5138    2.7880    7.8900 h1      3  DGE        0.0600
    109 H1          7.2848    2.9730    9.1740 h1      3  DGE        0.0600
    110 C1          9.1458    4.7140    9.9890 c3      3  DGE       -0.0367
    111 H2          8.5128    4.3620   10.8160 hc      3  DGE        0.0258
    112 H3          9.5558    5.6900   10.2580 hc      3  DGE        0.0258
    113 H4          9.9708    4.0040    9.8750 hc      3  DGE        0.0258
    114 O1          9.1838    5.2840    7.6400 oh      3  DGE       -0.3910
    115 H5          7.5068    5.5240    8.8340 h1      3  DGE        0.0622
    116 O2          0.9578    1.1980    0.0270 os      3  DGE       -0.3434
    117 C18        -0.4572    1.3730   -0.1920 c3      3  DGE        0.0805
    118 C4         -0.6802    1.7600   -1.6700 c3      3  DGE        0.0905
    119 H6         -0.8622    2.1500    0.4650 h1      3  DGE        0.0600
    120 H7         -0.9852    0.4300    0.0220 h1      3  DGE        0.0600
    121 O3         -0.1612    3.0660   -1.9030 oh      3  DGE       -0.3894
    122 C2         -2.1792    1.7320   -2.0370 c3      3  DGE        0.0270
    123 H8         -0.1532    1.0260   -2.3000 h1      3  DGE        0.0639
    124 H10        -2.5952    0.7330   -1.8900 h1      3  DGE        0.0459
    125 H11        -2.7482    2.4420   -1.4210 h1      3  DGE        0.0459
    126 H12        -0.3812    0.6470    2.3320 ha      3  DGE        0.0650
    127 H13         3.5088    0.8900    0.4710 ha      3  DGE        0.0650
    128 H14         4.5658    0.2000    2.5910 ha      3  DGE        0.0627
    129 H15         0.6448   -0.0420    4.4250 ha      3  DGE        0.0627
    130 H16         3.4428    2.3050    4.4690 ha      3  DGE        0.0627
    131 H17         4.8858    4.0210    5.4750 ha      3  DGE        0.0650
    132 H18         6.7988    1.0160    7.9120 ha      3  DGE        0.0650
    133 H19         5.3818   -0.7080    6.9130 ha      3  DGE        0.0627
    134 H20         0.7708    3.0540   -1.6100 ho      3  DGE        0.2106
    135 H21         9.3768    6.2260    7.8170 ho      3  DGE        0.2106
    136 C19         4.2148   -1.7430    4.6490 c3      3  DGE       -0.0517
    137 H22         5.0808   -1.5130    4.0260 hc      3  DGE        0.0243
    138 H23         3.5828   -2.4680    4.1080 hc      3  DGE        0.0243
    139 H24         4.5788   -2.2550    5.5480 hc      3  DGE        0.0243
    140 C20         2.3838   -0.8470    6.1010 c3      3  DGE       -0.0517
    141 H25         1.7818    0.0160    6.4140 hc      3  DGE        0.0243
    142 H26         2.8988   -1.2270    6.9910 hc      3  DGE        0.0243
    143 H27         1.6978   -1.6400    5.7660 hc      3  DGE        0.0243
@<TRIPOS>BOND
     1     1     2    1
     2     2     3    1
     3     3     4    1
     4     4     5    1
     5     5     6    1
     6     1     6    1
     7     6     7    1
     8     7     8    1
     9     8     9    1
    10     9    10    1
    11    10    11    1
    12    11    12    1
    13    12    13    1
    14     8    13    1
    15    11    14    1
    16     3    15    1
    17     1    16    1
    18     1    17    1
    19     2    18    1
    20     2    19    1
    21     3    20    1
    22     4    21    1
    23     4    22    1
    24     5    23    1
    25     5    24    1
    26     6    25    1
    27     7    26    1
    28     7    27    1
    29     8    28    1
    30     9    29    1
    31     9    30    1
    32    10    31    1
    33    10    32    1
    34    11    33    1
    35    12    34    1
    36    12    35    1
    37    13    36    1
    38    13    37    1
    39    14    38    1
    40    14    39    1
    41    40    41   ar
    42    41    42   ar
    43    42    43   ar
    44    40    44   ar
    45    44    45   ar
    46    45    43   ar
    47    45    46    1
    48    46    47    1
    49    47    48   ar
    50    48    49   ar
    51    49    50   ar
    52    50    51   ar
    53    51    52   ar
    54    47    52   ar
    55    50    53    1
    56    53    54    1
    57    54    55    1
    58    54    56    1
    59    54    57    1
    60    55    58    1
    61    58    59    1
    62    58    60    1
    63    58    61    1
    64    55    62    1
    65    55    63    1
    66    41    64    1
    67    64    65    1
    68    65    66    1
    69    65    67    1
    70    65    68    1
    71    66    69    1
    72    66    70    1
    73    66    71    1
    74    70    72    1
    75    70    73    1
    76    42    74    1
    77    40    75    1
    78    44    76    1
    79    43    77    1
    80    48    78    1
    81    49    79    1
    82    51    80    1
    83    52    81    1
    84    69    82    1
    85    62    83    1
    86    46    84    1
    87    84    85    1
    88    84    86    1
    89    84    87    1
    90    46    88    1
    91    88    89    1
    92    88    90    1
    93    88    91    1
    94    15    70    1
    95    92    93   ar
    96    93    94   ar
    97    94    95   ar
    98    92    96   ar
    99    96    97   ar
   100    97    95   ar
   101    97    98    1
   102    98    99    1
   103    99   100   ar
   104   100   101   ar
   105   101   102   ar
   106   102   103   ar
   107   103   104   ar
   108    99   104   ar
   109   102   105    1
   110   105   106    1
   111   106   107    1
   112   106   108    1
   113   106   109    1
   114   107   110    1
   115   110   111    1
   116   110   112    1
   117   110   113    1
   118   107   114    1
   119   107   115    1
   120    93   116    1
   121   116   117    1
   122   117   118    1
   123   117   119    1
   124   117   120    1
   125   118   121    1
   126   118   122    1
   127   118   123    1
   128   122   124    1
   129   122   125    1
   130    94   126    1
   131    92   127    1
   132    96   128    1
   133    95   129    1
   134   100   130    1
   135   101   131    1
   136   103   132    1
   137   104   133    1
   138   121   134    1
   139   114   135    1
   140    98   136    1
   141   136   137    1
   142   136   138    1
   143   136   139    1
   144    98   140    1
   145   140   141    1
   146   140   142    1
   147   140   143    1
   148    15   122    1
@<TRIPOS>SUBSTRUCTURE
     1 PAC          1 RESIDUE
     2 DGE          1 RESIDUE
     3 DGE          1 RESIDUE