@<TRIPOS>MOLECULE
PACDGE2-3
   143   148  3  0  0
SMALL
gas

@<TRIPOS>ATOM
      1 C          -4.3392   -0.9560   -6.8329 c3      1  PAC       -0.0490
      2 C3         -4.1192   -2.4660   -6.5929 c3      1  PAC       -0.0377
      3 C1         -2.8792   -3.0060   -7.3529 c3      1  PAC        0.0039
      4 C4         -1.6192   -2.1560   -7.0629 c3      1  PAC       -0.0377
      5 C5         -1.8692   -0.6460   -7.3129 c3      1  PAC       -0.0490
      6 C6         -3.0792   -0.0960   -6.5029 c3      1  PAC       -0.0411
      7 C7         -2.8392   -0.0360   -4.9629 c3      1  PAC       -0.0476
      8 C8         -1.6592    0.8540   -4.4729 c3      1  PAC       -0.0411
      9 C9         -1.8392    2.3640   -4.7829 c3      1  PAC       -0.0489
     10 C10        -2.9192    3.0440   -3.9029 c3      1  PAC       -0.0373
     11 C2         -2.6892    2.8240   -2.3929 c3      1  PAC        0.0098
     12 C11        -2.5292    1.3040   -2.0929 c3      1  PAC       -0.0373
     13 C12        -1.4192    0.6540   -2.9529 c3      1  PAC       -0.0489
     14 N2         -1.5192    3.5840   -1.9329 n3      1  PAC       -0.2951
     15 N1         -2.6392   -4.4060   -7.0129 n3      1  PAC       -0.3277
     16 H          -5.1892   -0.6060   -6.2329 hc      1  PAC        0.0270
     17 H1         -4.6092   -0.7960   -7.8829 hc      1  PAC        0.0270
     18 H2         -5.0092   -3.0160   -6.9129 hc      1  PAC        0.0283
     19 H3         -4.0092   -2.6660   -5.5229 hc      1  PAC        0.0283
     20 H4         -3.0892   -2.9360   -8.4229 h1      1  PAC        0.0462
     21 H5         -0.7892   -2.4960   -7.7029 hc      1  PAC        0.0283
     22 H6         -1.2892   -2.3060   -6.0229 hc      1  PAC        0.0283
     23 H7         -2.0692   -0.5060   -8.3829 hc      1  PAC        0.0270
     24 H8         -0.9592   -0.0760   -7.1029 hc      1  PAC        0.0270
     25 H9         -3.2792    0.9140   -6.8629 hc      1  PAC        0.0303
     26 H10        -2.6692   -1.0560   -4.5929 hc      1  PAC        0.0272
     27 H11        -3.7692    0.3040   -4.4929 hc      1  PAC        0.0272
     28 H12        -0.7392    0.5140   -4.9829 hc      1  PAC        0.0303
     29 H13        -2.0692    2.5240   -5.8429 hc      1  PAC        0.0270
     30 H14        -0.8792    2.8740   -4.6129 hc      1  PAC        0.0270
     31 H15        -3.8992    2.6540   -4.1829 hc      1  PAC        0.0283
     32 H16        -2.9392    4.1240   -4.1229 hc      1  PAC        0.0283
     33 H17        -3.5792    3.1940   -1.8629 h1      1  PAC        0.0467
     34 H18        -3.4892    0.8040   -2.2829 hc      1  PAC        0.0283
     35 H19        -2.3192    1.1240   -1.0329 hc      1  PAC        0.0283
     36 H20        -1.3492   -0.4160   -2.7229 hc      1  PAC        0.0270
     37 H21        -0.4492    1.0940   -2.6829 hc      1  PAC        0.0270
     38 H24        -2.4092   -4.4860   -6.0229 hn      1  PAC        0.1187
     39 H25        -1.8192   -4.7460   -7.5229 hn      1  PAC        0.1187
     40 C           3.4708    4.3240    3.2171 ca      2  DGE       -0.0315
     41 C5          2.0808    4.2540    3.0571 ca      2  DGE        0.0750
     42 C6          1.2708    4.0540    4.1871 ca      2  DGE       -0.0315
     43 C7          1.8408    3.9240    5.4571 ca      2  DGE       -0.0556
     44 C8          4.0508    4.1940    4.4971 ca      2  DGE       -0.0556
     45 C9          3.2408    3.9940    5.6371 ca      2  DGE       -0.0378
     46 C10         3.9208    3.8640    7.0271 c3      2  DGE        0.0146
     47 C11         4.6708    5.1540    7.4071 ca      2  DGE       -0.0378
     48 C12         4.3108    6.4040    6.8571 ca      2  DGE       -0.0556
     49 C13         4.9708    7.5840    7.2371 ca      2  DGE       -0.0315
     50 C14         6.0008    7.5440    8.1971 ca      2  DGE        0.0750
     51 C15         6.3508    6.3140    8.7771 ca      2  DGE       -0.0315
     52 C16         5.6908    5.1340    8.3871 ca      2  DGE       -0.0556
     53 O           6.6008    8.7340    8.5471 os      2  DGE       -0.3434
     54 C17         7.6308    8.8340    9.5471 c3      2  DGE        0.0790
     55 C3          8.0508   10.3140    9.6871 c3      2  DGE        0.0750
     56 H           8.5008    8.2240    9.2771 h1      2  DGE        0.0600
     57 H1          7.2308    8.4840   10.5071 h1      2  DGE        0.0600
     58 C1          8.7908   10.5740   11.0071 c3      2  DGE       -0.0367
     59 H2          8.1608   10.3240   11.8671 hc      2  DGE        0.0258
     60 H3          9.0808   11.6240   11.0971 hc      2  DGE        0.0258
     61 H4          9.7008    9.9640   11.0671 hc      2  DGE        0.0258
     62 O1          8.9008   10.6840    8.5971 oh      2  DGE       -0.3910
     63 H5          7.1408   10.9340    9.6671 h1      2  DGE        0.0622
     64 O2          1.5708    4.3740    1.7771 os      2  DGE       -0.3434
     65 C18         0.1708    4.2140    1.4771 c3      2  DGE        0.0805
     66 C4         -0.0092    4.3040   -0.0529 c3      2  DGE        0.0905
     67 H6         -0.4192    4.9940    1.9671 h1      2  DGE        0.0600
     68 H7         -0.1692    3.2340    1.8271 h1      2  DGE        0.0600
     69 O3          0.1208    5.6640   -0.4729 oh      2  DGE       -0.3894
     70 C2         -1.3892    3.7440   -0.4629 c3      2  DGE        0.0270
     71 H8          0.7608    3.6940   -0.5329 h1      2  DGE        0.0639
     72 H10        -1.5092    2.7740    0.0271 h1      2  DGE        0.0459
     73 H11        -2.1792    4.4040   -0.0929 h1      2  DGE        0.0459
     74 H12         0.1908    4.0040    4.0871 ha      2  DGE        0.0650
     75 H13         4.1108    4.4840    2.3571 ha      2  DGE        0.0650
     76 H14         5.1308    4.2740    4.5971 ha      2  DGE        0.0627
     77 H15         1.1708    3.7840    6.2971 ha      2  DGE        0.0627
     78 H16         3.5108    6.4840    6.1271 ha      2  DGE        0.0627
     79 H17         4.6908    8.5340    6.7971 ha      2  DGE        0.0650
     80 H18         7.1308    6.2540    9.5271 ha      2  DGE        0.0650
     81 H19         5.9808    4.2040    8.8671 ha      2  DGE        0.0627
     82 H20         1.0108    5.9540   -0.1929 ho      2  DGE        0.2106
     83 H21         9.0008   11.6540    8.6071 ho      2  DGE        0.2106
     84 C19         4.8808    2.6440    6.9471 c3      2  DGE       -0.0517
     85 H22         5.7608    2.8540    6.3171 hc      2  DGE        0.0243
     86 H23         4.3708    1.7640    6.5271 hc      2  DGE        0.0243
     87 H24         5.2608    2.3440    7.9371 hc      2  DGE        0.0243
     88 C20         2.9108    3.5740    8.1671 c3      2  DGE       -0.0517
     89 H25         2.2008    4.3940    8.2771 hc      2  DGE        0.0243
     90 H26         3.4208    3.4440    9.1271 hc      2  DGE        0.0243
     91 H27         2.3408    2.6440    7.9771 hc      2  DGE        0.0243
     92 C          -2.2992   -2.8150   -3.7419 ca      3  DGE       -0.0315
     93 C5         -1.9042   -1.8120   -2.8499 ca      3  DGE        0.0750
     94 C6         -2.2152   -1.9420   -1.4909 ca      3  DGE       -0.0315
     95 C7         -2.9312   -3.0540   -1.0299 ca      3  DGE       -0.0556
     96 C8         -3.0172   -3.9370   -3.2789 ca      3  DGE       -0.0556
     97 C9         -3.3512   -4.0730   -1.9159 ca      3  DGE       -0.0378
     98 C10        -4.1562   -5.3140   -1.4489 c3      3  DGE        0.0146
     99 C11        -3.3722   -6.6280   -1.6589 ca      3  DGE       -0.0378
    100 C12        -1.9682   -6.6270   -1.8289 ca      3  DGE       -0.0556
    101 C13        -1.2582   -7.8370   -1.9699 ca      3  DGE       -0.0315
    102 C14        -1.9312   -9.0680   -1.9169 ca      3  DGE        0.0750
    103 C15        -3.3252   -9.0770   -1.7289 ca      3  DGE       -0.0315
    104 C16        -4.0272   -7.8690   -1.5939 ca      3  DGE       -0.0556
    105 O          -1.1852  -10.2170   -2.0249 os      3  DGE       -0.3434
    106 C17        -1.7652  -11.5400   -2.0179 c3      3  DGE        0.0790
    107 C3         -0.6242  -12.5770   -2.1429 c3      3  DGE        0.0750
    108 H          -2.4682  -11.6610   -2.8549 h1      3  DGE        0.0600
    109 H1         -2.2962  -11.6990   -1.0759 h1      3  DGE        0.0600
    110 C1         -1.0982  -13.9920   -1.7579 c3      3  DGE       -0.0367
    111 H2         -1.4722  -14.0070   -0.7229 hc      3  DGE        0.0258
    112 H3         -0.2772  -14.7090   -1.8389 hc      3  DGE        0.0258
    113 H4         -1.9142  -14.3140   -2.4119 hc      3  DGE        0.0258
    114 O1         -0.1322  -12.6030   -3.4839 oh      3  DGE       -0.3910
    115 H5          0.1828  -12.2790   -1.4579 h1      3  DGE        0.0622
    116 O2         -1.2162   -0.7230   -3.3639 os      3  DGE       -0.3434
    117 C18        -0.7502    0.3700   -2.5479 c3      3  DGE        0.0805
    118 C4         -0.0702    1.4110   -3.4639 c3      3  DGE        0.0905
    119 H6         -0.0432    0.0200   -1.7879 h1      3  DGE        0.0600
    120 H7         -1.6042    0.8400   -2.0339 h1      3  DGE        0.0600
    121 O3          1.1398    0.8670   -3.9839 oh      3  DGE       -0.3894
    122 C2          0.2418    2.7140   -2.6999 c3      3  DGE        0.0270
    123 H8         -0.7622    1.6470   -4.2879 h1      3  DGE        0.0639
    124 H10         0.7168    3.4430   -3.3659 h1      3  DGE        0.0459
    125 H11         0.9208    2.5230   -1.8569 h1      3  DGE        0.0459
    126 H12        -1.9192   -1.1750   -0.7739 ha      3  DGE        0.0650
    127 H13        -2.0582   -2.7310   -4.7999 ha      3  DGE        0.0650
    128 H14        -3.2982   -4.7060   -3.9939 ha      3  DGE        0.0627
    129 H15        -3.1482   -3.1090    0.0351 ha      3  DGE        0.0627
    130 H16        -1.4022   -5.7040   -1.8549 ha      3  DGE        0.0627
    131 H17        -0.1812   -7.8240   -2.1019 ha      3  DGE        0.0650
    132 H18        -3.8722  -10.0180   -1.6669 ha      3  DGE        0.0650
    133 H19        -5.1012   -7.9180   -1.4249 ha      3  DGE        0.0627
    134 H20         0.9058    0.0210   -4.4129 ho      3  DGE        0.2106
    135 H21         0.7118  -13.0970   -3.4839 ho      3  DGE        0.2106
    136 C19        -5.4832   -5.3300   -2.2689 c3      3  DGE       -0.0517
    137 H22        -5.3042   -5.5730   -3.3169 hc      3  DGE        0.0243
    138 H23        -5.9712   -4.3420   -2.2299 hc      3  DGE        0.0243
    139 H24        -6.2062   -6.0520   -1.8709 hc      3  DGE        0.0243
    140 C20        -4.5452   -5.2390    0.0491 c3      3  DGE       -0.0517
    141 H25        -3.6562   -5.2450    0.6951 hc      3  DGE        0.0243
    142 H26        -5.1652   -6.0950    0.3381 hc      3  DGE        0.0243
    143 H27        -5.1262   -4.3320    0.2751 hc      3  DGE        0.0243
@<TRIPOS>BOND
     1     1     2    1
     2     2     3    1
     3     3     4    1
     4     4     5    1
     5     5     6    1
     6     1     6    1
     7     6     7    1
     8     7     8    1
     9     8     9    1
    10     9    10    1
    11    10    11    1
    12    11    12    1
    13    12    13    1
    14     8    13    1
    15    11    14    1
    16     3    15    1
    17     1    16    1
    18     1    17    1
    19     2    18    1
    20     2    19    1
    21     3    20    1
    22     4    21    1
    23     4    22    1
    24     5    23    1
    25     5    24    1
    26     6    25    1
    27     7    26    1
    28     7    27    1
    29     8    28    1
    30     9    29    1
    31     9    30    1
    32    10    31    1
    33    10    32    1
    34    11    33    1
    35    12    34    1
    36    12    35    1
    37    13    36    1
    38    13    37    1
    39    15    38    1
    40    15    39    1
    41    40    41   ar
    42    41    42   ar
    43    42    43   ar
    44    40    44   ar
    45    44    45   ar
    46    45    43   ar
    47    45    46    1
    48    46    47    1
    49    47    48   ar
    50    48    49   ar
    51    49    50   ar
    52    50    51   ar
    53    51    52   ar
    54    47    52   ar
    55    50    53    1
    56    53    54    1
    57    54    55    1
    58    54    56    1
    59    54    57    1
    60    55    58    1
    61    58    59    1
    62    58    60    1
    63    58    61    1
    64    55    62    1
    65    55    63    1
    66    41    64    1
    67    64    65    1
    68    65    66    1
    69    65    67    1
    70    65    68    1
    71    66    69    1
    72    66    70    1
    73    66    71    1
    74    70    72    1
    75    70    73    1
    76    42    74    1
    77    40    75    1
    78    44    76    1
    79    43    77    1
    80    48    78    1
    81    49    79    1
    82    51    80    1
    83    52    81    1
    84    69    82    1
    85    62    83    1
    86    46    84    1
    87    84    85    1
    88    84    86    1
    89    84    87    1
    90    46    88    1
    91    88    89    1
    92    88    90    1
    93    88    91    1
    94    14    70    1
    95    92    93   ar
    96    93    94   ar
    97    94    95   ar
    98    92    96   ar
    99    96    97   ar
   100    97    95   ar
   101    97    98    1
   102    98    99    1
   103    99   100   ar
   104   100   101   ar
   105   101   102   ar
   106   102   103   ar
   107   103   104   ar
   108    99   104   ar
   109   102   105    1
   110   105   106    1
   111   106   107    1
   112   106   108    1
   113   106   109    1
   114   107   110    1
   115   110   111    1
   116   110   112    1
   117   110   113    1
   118   107   114    1
   119   107   115    1
   120    93   116    1
   121   116   117    1
   122   117   118    1
   123   117   119    1
   124   117   120    1
   125   118   121    1
   126   118   122    1
   127   118   123    1
   128   122   124    1
   129   122   125    1
   130    94   126    1
   131    92   127    1
   132    96   128    1
   133    95   129    1
   134   100   130    1
   135   101   131    1
   136   103   132    1
   137   104   133    1
   138   121   134    1
   139   114   135    1
   140    98   136    1
   141   136   137    1
   142   136   138    1
   143   136   139    1
   144    98   140    1
   145   140   141    1
   146   140   142    1
   147   140   143    1
   148    14   122    1
@<TRIPOS>SUBSTRUCTURE
     1 PAC          1 RESIDUE
     2 DGE          1 RESIDUE
     3 DGE          1 RESIDUE