@<TRIPOS>MOLECULE
PACDGE2-5
   143   148  3  0  0
SMALL
gas

@<TRIPOS>ATOM
      1 C          -2.8930    2.0160   -0.2010 c3      1  PAC       -0.0489
      2 C3         -2.5220    0.5260   -0.0210 c3      1  PAC       -0.0373
      3 C1         -1.3120    0.1260   -0.8810 c3      1  PAC        0.0098
      4 C4         -0.1020    1.0660   -0.6110 c3      1  PAC       -0.0373
      5 C5         -0.4920    2.5460   -0.8210 c3      1  PAC       -0.0489
      6 C6         -1.7020    2.9760    0.0490 c3      1  PAC       -0.0411
      7 C7         -1.3730    3.0960    1.5690 c3      1  PAC       -0.0476
      8 C8         -0.2530    4.1260    1.9490 c3      1  PAC       -0.0411
      9 C9         -0.5520    5.5760    1.4990 c3      1  PAC       -0.0490
     10 C10        -1.7120    6.2260    2.2890 c3      1  PAC       -0.0377
     11 C2         -1.4820    6.1860    3.8190 c3      1  PAC        0.0039
     12 C11        -1.1230    4.7560    4.3090 c3      1  PAC       -0.0377
     13 C12         0.0180    4.1060    3.4790 c3      1  PAC       -0.0490
     14 N2         -0.4320    7.1360    4.1990 n3      1  PAC       -0.3277
     15 N1         -0.9830   -1.3040   -0.6610 n3      1  PAC       -0.2951
     16 H          -3.7320    2.2760    0.4690 hc      1  PAC        0.0270
     17 H1         -3.2630    2.1660   -1.2210 hc      1  PAC        0.0270
     18 H2         -3.3930   -0.0940   -0.2910 hc      1  PAC        0.0283
     19 H3         -2.3120    0.3260    1.0390 hc      1  PAC        0.0283
     20 H4         -1.6030    0.2560   -1.9310 h1      1  PAC        0.0467
     21 H5          0.7280    0.8260   -1.2910 hc      1  PAC        0.0283
     22 H6          0.2680    0.9160    0.4090 hc      1  PAC        0.0283
     23 H7         -0.7520    2.6860   -1.8810 hc      1  PAC        0.0270
     24 H8          0.3780    3.1860   -0.6410 hc      1  PAC        0.0270
     25 H9         -2.0330    3.9660   -0.3010 hc      1  PAC        0.0303
     26 H10        -1.0830    2.1160    1.9490 hc      1  PAC        0.0272
     27 H11        -2.2920    3.3560    2.0890 hc      1  PAC        0.0272
     28 H12         0.6770    3.8060    1.4690 hc      1  PAC        0.0303
     29 H13        -0.7620    5.6260    0.4190 hc      1  PAC        0.0270
     30 H14         0.3570    6.1860    1.6490 hc      1  PAC        0.0270
     31 H15        -2.6520    5.7060    2.0490 hc      1  PAC        0.0283
     32 H16        -1.8530    7.2660    1.9590 hc      1  PAC        0.0283
     33 H17        -2.4130    6.4960    4.3090 h1      1  PAC        0.0462
     34 H18        -2.0220    4.1260    4.2490 hc      1  PAC        0.0283
     35 H19        -0.8430    4.7860    5.3690 hc      1  PAC        0.0283
     36 H20         0.1770    3.0760    3.8290 hc      1  PAC        0.0270
     37 H21         0.9480    4.6460    3.6790 hc      1  PAC        0.0270
     38 H22         0.4480    6.8560    3.7790 hn      1  PAC        0.1187
     39 H23        -0.2920    7.0960    5.2090 hn      1  PAC        0.1187
     40 C          -4.8720   -2.6940  -11.6910 ca      2  DGE       -0.0315
     41 C5         -5.6920   -1.6840  -12.2210 ca      2  DGE        0.0750
     42 C6         -6.6620   -1.0840  -11.4010 ca      2  DGE       -0.0315
     43 C7         -6.8030   -1.4840  -10.0610 ca      2  DGE       -0.0556
     44 C8         -5.0130   -3.0940  -10.3510 ca      2  DGE       -0.0556
     45 C9         -5.9920   -2.5040   -9.5110 ca      2  DGE       -0.0378
     46 C10        -6.1330   -3.0040   -8.0510 c3      2  DGE        0.0146
     47 C11        -4.8620   -2.7140   -7.2210 ca      2  DGE       -0.0378
     48 C12        -3.9220   -1.7240   -7.6110 ca      2  DGE       -0.0556
     49 C13        -2.8030   -1.4440   -6.8210 ca      2  DGE       -0.0315
     50 C14        -2.5920   -2.1240   -5.6110 ca      2  DGE        0.0750
     51 C15        -3.5220   -3.0940   -5.2010 ca      2  DGE       -0.0315
     52 C16        -4.6430   -3.3840   -6.0010 ca      2  DGE       -0.0556
     53 O          -1.4920   -1.7840   -4.8510 os      2  DGE       -0.3434
     54 C17        -1.2220   -2.3640   -3.5510 c3      2  DGE        0.0805
     55 C3          0.0370   -1.6940   -2.9610 c3      2  DGE        0.0905
     56 H          -1.0620   -3.4440   -3.6310 h1      2  DGE        0.0600
     57 H1         -2.0830   -2.1840   -2.9010 h1      2  DGE        0.0600
     58 C1          0.1380   -1.8840   -1.4310 c3      2  DGE        0.0270
     59 H3          1.0770   -1.4540   -1.0810 h1      2  DGE        0.0459
     60 H2          0.1770   -2.9640   -1.2210 h1      2  DGE        0.0459
     61 O1          1.2080   -2.2440   -3.5710 oh      2  DGE       -0.3894
     62 H5         -0.0130   -0.6140   -3.1810 h1      2  DGE        0.0639
     63 O2         -5.5220   -1.3440  -13.5510 os      2  DGE       -0.3434
     64 C18        -6.3120   -0.3340  -14.2010 c3      2  DGE        0.0790
     65 C4         -5.8620   -0.2440  -15.6810 c3      2  DGE        0.0750
     66 H6         -6.1730    0.6460  -13.7110 h1      2  DGE        0.0600
     67 H7         -7.3720   -0.6040  -14.1610 h1      2  DGE        0.0600
     68 O3         -4.5430    0.2860  -15.7510 oh      2  DGE       -0.3910
     69 C2         -6.8120    0.6460  -16.5010 c3      2  DGE       -0.0367
     70 H8         -5.8830   -1.2540  -16.1010 h1      2  DGE        0.0622
     71 H9         -7.8430    0.2460  -16.4810 hc      2  DGE        0.0258
     72 H10        -6.4920    0.6860  -17.5510 hc      2  DGE        0.0258
     73 H11        -6.8430    1.6660  -16.1010 hc      2  DGE        0.0258
     74 H12        -7.3030   -0.3040  -11.7810 ha      2  DGE        0.0650
     75 H13        -4.1220   -3.1640  -12.3110 ha      2  DGE        0.0650
     76 H14        -4.3530   -3.8640   -9.9610 ha      2  DGE        0.0627
     77 H15        -7.5620   -0.9940   -9.4610 ha      2  DGE        0.0627
     78 H16        -4.0620   -1.1540   -8.5210 ha      2  DGE        0.0627
     79 H17        -2.0920   -0.6840   -7.1310 ha      2  DGE        0.0650
     80 H18        -3.3930   -3.6340   -4.2610 ha      2  DGE        0.0650
     81 H19        -5.3530   -4.1240   -5.6410 ha      2  DGE        0.0627
     82 H20        -3.9930   -0.2640  -15.1810 ho      2  DGE        0.2106
     83 H21         1.9380   -1.6340   -3.3910 ho      2  DGE        0.2106
     84 C19        -6.4330   -4.5240   -8.1110 c3      2  DGE       -0.0517
     85 H22        -5.5430   -5.0940   -8.4310 hc      2  DGE        0.0243
     86 H23        -7.2320   -4.7340   -8.8210 hc      2  DGE        0.0243
     87 H24        -6.7530   -4.9240   -7.1410 hc      2  DGE        0.0243
     88 C20        -7.3220   -2.3340   -7.3110 c3      2  DGE       -0.0517
     89 H25        -7.1730   -1.2540   -7.2110 hc      2  DGE        0.0243
     90 H26        -7.4330   -2.7340   -6.2910 hc      2  DGE        0.0243
     91 H27        -8.2730   -2.5040   -7.8310 hc      2  DGE        0.0243
     92 C           4.5120   -1.9540    4.7760 ca      3  DGE       -0.0315
     93 C5          3.1150   -1.9420    4.6980 ca      3  DGE        0.0750
     94 C6          2.3620   -2.1600    5.8590 ca      3  DGE       -0.0315
     95 C7          2.9980   -2.4070    7.0820 ca      3  DGE       -0.0556
     96 C8          5.1540   -2.2000    6.0080 ca      3  DGE       -0.0556
     97 C9          4.4090   -2.4370    7.1810 ca      3  DGE       -0.0378
     98 C10         5.1530   -2.7190    8.5130 c3      3  DGE        0.0146
     99 C11         5.9920   -1.5090    8.9760 ca      3  DGE       -0.0378
    100 C12         5.7430   -0.2080    8.4830 ca      3  DGE       -0.0556
    101 C13         6.4840    0.8950    8.9530 ca      3  DGE       -0.0315
    102 C14         7.4680    0.7250    9.9390 ca      3  DGE        0.0750
    103 C15         7.7090   -0.5640   10.4480 ca      3  DGE       -0.0315
    104 C16         6.9710   -1.6590    9.9740 ca      3  DGE       -0.0556
    105 O           8.1360    1.8400   10.3850 os      3  DGE       -0.3434
    106 C17         9.1900    1.7900   11.3700 c3      3  DGE        0.0790
    107 C3          9.6900    3.2310   11.6300 c3      3  DGE        0.0750
    108 H          10.0240    1.1670   11.0170 h1      3  DGE        0.0600
    109 H1          8.7970    1.3710   12.3010 h1      3  DGE        0.0600
    110 C1         10.5220    3.3190   12.9240 c3      3  DGE       -0.0367
    111 H2          9.9270    2.9950   13.7910 hc      3  DGE        0.0258
    112 H3         10.8560    4.3450   13.0980 hc      3  DGE        0.0258
    113 H4         11.4000    2.6680   12.8600 hc      3  DGE        0.0258
    114 O1         10.4910    3.6750   10.5340 oh      3  DGE       -0.3910
    115 H5          8.8090    3.8820   11.7350 h1      3  DGE        0.0622
    116 O2          2.5380   -1.7130    3.4590 os      3  DGE       -0.3434
    117 C18         1.1120   -1.6700    3.2500 c3      3  DGE        0.0805
    118 C4          0.8440   -1.4370    1.7480 c3      3  DGE        0.0905
    119 H6          0.6530   -0.8700    3.8420 h1      3  DGE        0.0600
    120 H7          0.6630   -2.6280    3.5570 h1      3  DGE        0.0600
    121 O3          1.2560   -0.1200    1.3890 oh      3  DGE       -0.3894
    122 C2         -0.6510   -1.6150    1.4100 c3      3  DGE        0.0270
    123 H8          1.4210   -2.1810    1.1760 h1      3  DGE        0.0639
    124 H10        -0.9930   -2.6210    1.6580 h1      3  DGE        0.0459
    125 H11        -1.2690   -0.8990    1.9700 h1      3  DGE        0.0459
    126 H12         1.2720   -2.1560    5.8270 ha      3  DGE        0.0650
    127 H13         5.1100   -1.7790    3.8850 ha      3  DGE        0.0650
    128 H14         6.2400   -2.1890    6.0390 ha      3  DGE        0.0627
    129 H15         2.3700   -2.5710    7.9550 ha      3  DGE        0.0627
    130 H16         4.9800   -0.0230    7.7370 ha      3  DGE        0.0627
    131 H17         6.2850    1.8890    8.5640 ha      3  DGE        0.0650
    132 H18         8.4550   -0.7230   11.2270 ha      3  DGE        0.0650
    133 H19         7.1700   -2.6370   10.4110 ha      3  DGE        0.0627
    134 H20         2.1880   -0.0330    1.6670 ho      3  DGE        0.2106
    135 H21        10.6100    4.6420   10.6220 ho      3  DGE        0.2106
    136 C19         6.0660   -3.9610    8.2680 c3      3  DGE       -0.0517
    137 H22         6.8980   -3.7220    7.6050 hc      3  DGE        0.0243
    138 H23         5.4880   -4.7780    7.8060 hc      3  DGE        0.0243
    139 H24         6.4780   -4.3590    9.2030 hc      3  DGE        0.0243
    140 C20         4.1840   -3.0830    9.6660 c3      3  DGE       -0.0517
    141 H25         3.5190   -2.2440    9.9110 hc      3  DGE        0.0243
    142 H26         4.7370   -3.3390   10.5770 hc      3  DGE        0.0243
    143 H27         3.5600   -3.9540    9.4160 hc      3  DGE        0.0243
@<TRIPOS>BOND
     1     1     2    1
     2     2     3    1
     3     3     4    1
     4     4     5    1
     5     5     6    1
     6     1     6    1
     7     6     7    1
     8     7     8    1
     9     8     9    1
    10     9    10    1
    11    10    11    1
    12    11    12    1
    13    12    13    1
    14     8    13    1
    15    11    14    1
    16     3    15    1
    17     1    16    1
    18     1    17    1
    19     2    18    1
    20     2    19    1
    21     3    20    1
    22     4    21    1
    23     4    22    1
    24     5    23    1
    25     5    24    1
    26     6    25    1
    27     7    26    1
    28     7    27    1
    29     8    28    1
    30     9    29    1
    31     9    30    1
    32    10    31    1
    33    10    32    1
    34    11    33    1
    35    12    34    1
    36    12    35    1
    37    13    36    1
    38    13    37    1
    39    14    38    1
    40    14    39    1
    41    40    41   ar
    42    41    42   ar
    43    42    43   ar
    44    40    44   ar
    45    44    45   ar
    46    45    43   ar
    47    45    46    1
    48    46    47    1
    49    47    48   ar
    50    48    49   ar
    51    49    50   ar
    52    50    51   ar
    53    51    52   ar
    54    47    52   ar
    55    50    53    1
    56    53    54    1
    57    54    55    1
    58    54    56    1
    59    54    57    1
    60    55    58    1
    61    58    59    1
    62    58    60    1
    63    55    61    1
    64    55    62    1
    65    41    63    1
    66    63    64    1
    67    64    65    1
    68    64    66    1
    69    64    67    1
    70    65    68    1
    71    65    69    1
    72    65    70    1
    73    69    71    1
    74    69    72    1
    75    69    73    1
    76    42    74    1
    77    40    75    1
    78    44    76    1
    79    43    77    1
    80    48    78    1
    81    49    79    1
    82    51    80    1
    83    52    81    1
    84    68    82    1
    85    61    83    1
    86    46    84    1
    87    84    85    1
    88    84    86    1
    89    84    87    1
    90    46    88    1
    91    88    89    1
    92    88    90    1
    93    88    91    1
    94    15    58    1
    95    92    93   ar
    96    93    94   ar
    97    94    95   ar
    98    92    96   ar
    99    96    97   ar
   100    97    95   ar
   101    97    98    1
   102    98    99    1
   103    99   100   ar
   104   100   101   ar
   105   101   102   ar
   106   102   103   ar
   107   103   104   ar
   108    99   104   ar
   109   102   105    1
   110   105   106    1
   111   106   107    1
   112   106   108    1
   113   106   109    1
   114   107   110    1
   115   110   111    1
   116   110   112    1
   117   110   113    1
   118   107   114    1
   119   107   115    1
   120    93   116    1
   121   116   117    1
   122   117   118    1
   123   117   119    1
   124   117   120    1
   125   118   121    1
   126   118   122    1
   127   118   123    1
   128   122   124    1
   129   122   125    1
   130    94   126    1
   131    92   127    1
   132    96   128    1
   133    95   129    1
   134   100   130    1
   135   101   131    1
   136   103   132    1
   137   104   133    1
   138   121   134    1
   139   114   135    1
   140    98   136    1
   141   136   137    1
   142   136   138    1
   143   136   139    1
   144    98   140    1
   145   140   141    1
   146   140   142    1
   147   140   143    1
   148    15   122    1
@<TRIPOS>SUBSTRUCTURE
     1 PAC          1 RESIDUE
     2 DGE          1 RESIDUE
     3 DGE          1 RESIDUE