@<TRIPOS>MOLECULE
PACDGE2
   143   148  3  0  0
SMALL
gas

@<TRIPOS>ATOM
      1 C           1.7670   -4.7562   -1.9572 c3      1  PAC       -0.0490
      2 C3          1.9970   -6.2562   -1.6972 c3      1  PAC       -0.0377
      3 C2          3.1970   -6.8062   -2.5172 c3      1  PAC        0.0039
      4 C4          4.4670   -5.9562   -2.3172 c3      1  PAC       -0.0377
      5 C5          4.2070   -4.4462   -2.5672 c3      1  PAC       -0.0490
      6 C6          3.0370   -3.8962   -1.7172 c3      1  PAC       -0.0411
      7 C7          3.3570   -3.7962   -0.1972 c3      1  PAC       -0.0476
      8 C8          4.4470   -2.7662    0.2228 c3      1  PAC       -0.0411
      9 C9          4.0470   -1.2862   -0.0572 c3      1  PAC       -0.0489
     10 C10         2.8770   -0.8162    0.8428 c3      1  PAC       -0.0373
     11 C1          3.1370   -1.0362    2.3528 c3      1  PAC        0.0098
     12 C11         3.6570   -2.4662    2.6528 c3      1  PAC       -0.0373
     13 C12         4.8070   -2.9062    1.7228 c3      1  PAC       -0.0489
     14 N1          4.0470    0.0238    2.8528 n3      1  PAC       -0.2951
     15 N2          3.4570   -8.2062   -2.1772 n3      1  PAC       -0.3277
     16 H           0.9370   -4.3962   -1.3372 hc      1  PAC        0.0270
     17 H1          1.4470   -4.6262   -2.9972 hc      1  PAC        0.0270
     18 H2          1.0970   -6.8162   -1.9572 hc      1  PAC        0.0283
     19 H3          2.1770   -6.4262   -0.6272 hc      1  PAC        0.0283
     20 H4          2.9270   -6.7462   -3.5772 h1      1  PAC        0.0462
     21 H5          5.2570   -6.2962   -2.9972 hc      1  PAC        0.0283
     22 H6          4.8570   -6.0962   -1.2972 hc      1  PAC        0.0283
     23 H7          3.9670   -4.3062   -3.6272 hc      1  PAC        0.0270
     24 H8          5.1270   -3.8762   -2.3872 hc      1  PAC        0.0270
     25 H9          2.7970   -2.8862   -2.0772 hc      1  PAC        0.0303
     26 H10         3.6670   -4.7862    0.1728 hc      1  PAC        0.0272
     27 H11         2.4270   -3.5762    0.3428 hc      1  PAC        0.0272
     28 H12         5.3570   -2.9762   -0.3472 hc      1  PAC        0.0303
     29 H13         3.7870   -1.1462   -1.1172 hc      1  PAC        0.0270
     30 H14         4.9170   -0.6462    0.1328 hc      1  PAC        0.0270
     31 H15         1.9570   -1.3562    0.5528 hc      1  PAC        0.0283
     32 H16         2.6770    0.2438    0.6428 hc      1  PAC        0.0283
     33 H17         2.1770   -0.9162    2.8628 h1      1  PAC        0.0467
     34 H18         2.8170   -3.1662    2.5428 hc      1  PAC        0.0283
     35 H19         3.9770   -2.5662    3.6928 hc      1  PAC        0.0283
     36 H20         5.0870   -3.9462    1.9428 hc      1  PAC        0.0270
     37 H21         5.6970   -2.2962    1.9428 hc      1  PAC        0.0270
     38 H24         3.7270   -8.2662   -1.1972 hn      1  PAC        0.1187
     39 H25         4.2370   -8.5562   -2.7172 hn      1  PAC        0.1187
     40 C          -6.4530    1.1138    7.6728 ca      2  DGE       -0.0315
     41 C5         -7.5030    0.3938    7.0928 ca      2  DGE        0.0750
     42 C6         -7.5830    0.2938    5.6928 ca      2  DGE       -0.0315
     43 C7         -6.6230    0.9238    4.8828 ca      2  DGE       -0.0556
     44 C8         -5.4930    1.7438    6.8628 ca      2  DGE       -0.0556
     45 C9         -5.5630    1.6738    5.4528 ca      2  DGE       -0.0378
     46 C10        -4.5030    2.4138    4.6028 c3      2  DGE        0.0146
     47 C11        -3.0830    1.8538    4.8628 ca      2  DGE       -0.0378
     48 C12        -2.8830    0.5538    5.3628 ca      2  DGE       -0.0556
     49 C13        -1.5830    0.0438    5.5628 ca      2  DGE       -0.0315
     50 C14        -0.4630    0.8238    5.2328 ca      2  DGE        0.0750
     51 C15        -0.6430    2.1138    4.7128 ca      2  DGE       -0.0315
     52 C16        -1.9430    2.6238    4.5228 ca      2  DGE       -0.0556
     53 O           0.7870    0.2638    5.4228 os      2  DGE       -0.3434
     54 C17         2.0170    0.8938    5.0128 c3      2  DGE        0.0805
     55 C3          3.1570   -0.1262    5.2428 c3      2  DGE        0.0905
     56 H           2.1970    1.8138    5.5828 h1      2  DGE        0.0600
     57 H1          1.9470    1.1538    3.9428 h1      2  DGE        0.0600
     58 C1          4.3670    0.0738    4.2928 c3      2  DGE        0.0270
     59 H3          5.1070   -0.7062    4.5128 h1      2  DGE        0.0459
     60 H2          4.8370    1.0338    4.5228 h1      2  DGE        0.0459
     61 O1          3.6170   -0.0262    6.5928 oh      2  DGE       -0.3894
     62 H5          2.7470   -1.1262    5.0828 h1      2  DGE        0.0639
     63 O2         -8.4330   -0.1962    7.9328 os      2  DGE       -0.3434
     64 C18        -9.5630   -0.9462    7.4528 c3      2  DGE        0.0790
     65 C4        -10.3930   -1.4062    8.6728 c3      2  DGE        0.0750
     66 H6         -9.2330   -1.8162    6.8828 h1      2  DGE        0.0600
     67 H7        -10.1830   -0.3062    6.8028 h1      2  DGE        0.0600
     68 O3         -9.6730   -2.3762    9.4128 oh      2  DGE       -0.3910
     69 C2        -11.7430   -2.0062    8.2328 c3      2  DGE       -0.0367
     70 H8        -10.5930   -0.5262    9.3028 h1      2  DGE        0.0622
     71 H9        -12.3430   -1.2662    7.6828 hc      2  DGE        0.0258
     72 H10       -12.3330   -2.3162    9.1128 hc      2  DGE        0.0258
     73 H11       -11.5930   -2.8862    7.5928 hc      2  DGE        0.0258
     74 H12        -8.3830   -0.2662    5.2128 ha      2  DGE        0.0650
     75 H13        -6.3830    1.1938    8.7528 ha      2  DGE        0.0650
     76 H14        -4.6930    2.3038    7.3428 ha      2  DGE        0.0627
     77 H15        -6.7230    0.8238    3.8128 ha      2  DGE        0.0627
     78 H16        -3.7230   -0.0862    5.6028 ha      2  DGE        0.0627
     79 H17        -1.4530   -0.9562    5.9528 ha      2  DGE        0.0650
     80 H18         0.2070    2.7238    4.4328 ha      2  DGE        0.0650
     81 H19        -2.0430    3.6138    4.0928 ha      2  DGE        0.0627
     82 H20        -8.8030   -1.9762    9.6228 ho      2  DGE        0.2106
     83 H21         4.1470   -0.8262    6.7828 ho      2  DGE        0.2106
     84 C19        -4.5930    3.9238    4.9628 c3      2  DGE       -0.0517
     85 H22        -4.2130    4.1138    5.9728 hc      2  DGE        0.0243
     86 H23        -5.6430    4.2638    4.9328 hc      2  DGE        0.0243
     87 H24        -4.0330    4.5438    4.2628 hc      2  DGE        0.0243
     88 C20        -4.7630    2.2838    3.0728 c3      2  DGE       -0.0517
     89 H25        -4.7130    1.2438    2.7428 hc      2  DGE        0.0243
     90 H26        -4.0230    2.8538    2.5028 hc      2  DGE        0.0243
     91 H27        -5.7530    2.6838    2.8128 hc      2  DGE        0.0243
     92 C           1.4120    2.4988   -8.4892 ca      3  DGE       -0.0315
     93 C5          0.4620    3.5018   -8.7102 ca      3  DGE        0.0750
     94 C6         -0.6280    3.6178   -7.8392 ca      3  DGE       -0.0315
     95 C7         -0.7780    2.7278   -6.7672 ca      3  DGE       -0.0556
     96 C8          1.2640    1.6038   -7.4092 ca      3  DGE       -0.0556
     97 C9          0.1630    1.6988   -6.5332 ca      3  DGE       -0.0378
     98 C10         0.0270    0.6848   -5.3662 c3      3  DGE        0.0146
     99 C11         1.1830    0.8128   -4.3492 ca      3  DGE       -0.0378
    100 C12         1.9760    1.9818   -4.2792 ca      3  DGE       -0.0556
    101 C13         2.9940    2.1048   -3.3132 ca      3  DGE       -0.0315
    102 C14         3.2230    1.0778   -2.3842 ca      3  DGE        0.0750
    103 C15         2.4250   -0.0802   -2.4352 ca      3  DGE       -0.0315
    104 C16         1.4160   -0.1982   -3.4022 ca      3  DGE       -0.0556
    105 O           4.2060    1.2658   -1.4422 os      3  DGE       -0.3434
    106 C17         4.5570    0.2708   -0.4562 c3      3  DGE        0.0805
    107 C3          5.6870    0.8388    0.4348 c3      3  DGE        0.0905
    108 H           4.8990   -0.6542   -0.9412 h1      3  DGE        0.0600
    109 H1          3.6840    0.0508    0.1648 h1      3  DGE        0.0600
    110 C1          5.8520    0.0238    1.7318 c3      3  DGE        0.0270
    111 H3          6.6450    0.4458    2.3548 h1      3  DGE        0.0459
    112 H2          6.1010   -1.0172    1.5018 h1      3  DGE        0.0459
    113 O1          6.9240    0.8278   -0.2792 oh      3  DGE       -0.3894
    114 H5          5.4220    1.8728    0.7028 h1      3  DGE        0.0639
    115 O2          0.6500    4.3408   -9.7972 os      3  DGE       -0.3434
    116 C18        -0.2540    5.4148  -10.1282 c3      3  DGE        0.0790
    117 C4          0.2500    6.1008  -11.4162 c3      3  DGE        0.0750
    118 H6         -0.3120    6.1438   -9.3122 h1      3  DGE        0.0600
    119 H7         -1.2640    5.0108  -10.3012 h1      3  DGE        0.0600
    120 O3          1.4690    6.7868  -11.1442 oh      3  DGE       -0.3910
    121 C2         -0.7890    7.1028  -11.9622 c3      3  DGE       -0.0367
    122 H8          0.4160    5.3218  -12.1772 h1      3  DGE        0.0622
    123 H9         -1.7300    6.6028  -12.1972 hc      3  DGE        0.0258
    124 H10        -0.4190    7.5738  -12.8802 hc      3  DGE        0.0258
    125 H11        -0.9980    7.8938  -11.2272 hc      3  DGE        0.0258
    126 H12        -1.3840    4.3898   -7.9892 ha      3  DGE        0.0650
    127 H13         2.2680    2.4008   -9.1522 ha      3  DGE        0.0650
    128 H14         2.0250    0.8438   -7.2542 ha      3  DGE        0.0627
    129 H15        -1.6420    2.8588   -6.1192 ha      3  DGE        0.0627
    130 H16         1.8230    2.8098   -4.9612 ha      3  DGE        0.0627
    131 H17         3.5980    3.0058   -3.2712 ha      3  DGE        0.0650
    132 H18         2.5690   -0.8862   -1.7152 ha      3  DGE        0.0650
    133 H19         0.8030   -1.0992   -3.3942 ha      3  DGE        0.0627
    134 H20         2.0780    6.1298  -10.7532 ho      3  DGE        0.2106
    135 H21         7.5610    1.3798    0.2178 ho      3  DGE        0.2106
    136 C19         0.0100   -0.7392   -6.0022 c3      3  DGE       -0.0517
    137 H22         0.9860   -1.0102   -6.4072 hc      3  DGE        0.0243
    138 H23        -0.7230   -0.7842   -6.8252 hc      3  DGE        0.0243
    139 H24        -0.2830   -1.5092   -5.2792 hc      3  DGE        0.0243
    140 C20        -1.3000    0.8548   -4.5852 c3      3  DGE       -0.0517
    141 H25        -1.3520    1.8338   -4.0892 hc      3  DGE        0.0243
    142 H26        -1.4000    0.0888   -3.8092 hc      3  DGE        0.0243
    143 H27        -2.1760    0.7588   -5.2452 hc      3  DGE        0.0243
@<TRIPOS>BOND
     1     1     2    1
     2     2     3    1
     3     3     4    1
     4     4     5    1
     5     5     6    1
     6     1     6    1
     7     6     7    1
     8     7     8    1
     9     8     9    1
    10     9    10    1
    11    10    11    1
    12    11    12    1
    13    12    13    1
    14     8    13    1
    15    11    14    1
    16     3    15    1
    17     1    16    1
    18     1    17    1
    19     2    18    1
    20     2    19    1
    21     3    20    1
    22     4    21    1
    23     4    22    1
    24     5    23    1
    25     5    24    1
    26     6    25    1
    27     7    26    1
    28     7    27    1
    29     8    28    1
    30     9    29    1
    31     9    30    1
    32    10    31    1
    33    10    32    1
    34    11    33    1
    35    12    34    1
    36    12    35    1
    37    13    36    1
    38    13    37    1
    39    15    38    1
    40    15    39    1
    41    40    41   ar
    42    41    42   ar
    43    42    43   ar
    44    40    44   ar
    45    44    45   ar
    46    43    45   ar
    47    45    46    1
    48    46    47    1
    49    47    48   ar
    50    48    49   ar
    51    49    50   ar
    52    50    51   ar
    53    51    52   ar
    54    47    52   ar
    55    50    53    1
    56    53    54    1
    57    54    55    1
    58    54    56    1
    59    54    57    1
    60    55    58    1
    61    58    59    1
    62    58    60    1
    63    55    61    1
    64    55    62    1
    65    41    63    1
    66    63    64    1
    67    64    65    1
    68    64    66    1
    69    64    67    1
    70    65    68    1
    71    65    69    1
    72    65    70    1
    73    69    71    1
    74    69    72    1
    75    69    73    1
    76    42    74    1
    77    40    75    1
    78    44    76    1
    79    43    77    1
    80    48    78    1
    81    49    79    1
    82    51    80    1
    83    52    81    1
    84    68    82    1
    85    61    83    1
    86    46    84    1
    87    84    85    1
    88    84    86    1
    89    84    87    1
    90    46    88    1
    91    88    89    1
    92    88    90    1
    93    88    91    1
    94    14    58    1
    95    92    93   ar
    96    93    94   ar
    97    94    95   ar
    98    92    96   ar
    99    96    97   ar
   100    95    97   ar
   101    97    98    1
   102    98    99    1
   103    99   100   ar
   104   100   101   ar
   105   101   102   ar
   106   102   103   ar
   107   103   104   ar
   108    99   104   ar
   109   102   105    1
   110   105   106    1
   111   106   107    1
   112   106   108    1
   113   106   109    1
   114   107   110    1
   115   110   111    1
   116   110   112    1
   117   107   113    1
   118   107   114    1
   119    93   115    1
   120   115   116    1
   121   116   117    1
   122   116   118    1
   123   116   119    1
   124   117   120    1
   125   117   121    1
   126   117   122    1
   127   121   123    1
   128   121   124    1
   129   121   125    1
   130    94   126    1
   131    92   127    1
   132    96   128    1
   133    95   129    1
   134   100   130    1
   135   101   131    1
   136   103   132    1
   137   104   133    1
   138   120   134    1
   139   113   135    1
   140    98   136    1
   141   136   137    1
   142   136   138    1
   143   136   139    1
   144    98   140    1
   145   140   141    1
   146   140   142    1
   147   140   143    1
   148    14   110    1
@<TRIPOS>SUBSTRUCTURE
     1 PAC          1 RESIDUE
     2 DGE          1 RESIDUE
     3 DGE          1 RESIDUE
