@<TRIPOS>MOLECULE
PACDGE2-4
   143   148  3  0  0
SMALL
gas

@<TRIPOS>ATOM
      1 C           2.3867    2.0830    1.5089 c3      1  PAC       -0.0489
      2 C3          2.7567    0.5940    1.6889 c3      1  PAC       -0.0373
      3 C1          3.9667    0.1940    0.8289 c3      1  PAC        0.0098
      4 C4          5.1767    1.1330    1.0989 c3      1  PAC       -0.0373
      5 C5          4.7867    2.6140    0.8889 c3      1  PAC       -0.0489
      6 C6          3.5767    3.0430    1.7589 c3      1  PAC       -0.0411
      7 C7          3.9067    3.1630    3.2789 c3      1  PAC       -0.0476
      8 C8          5.0267    4.1940    3.6589 c3      1  PAC       -0.0411
      9 C9          4.7267    5.6440    3.2089 c3      1  PAC       -0.0490
     10 C10         3.5667    6.2930    3.9989 c3      1  PAC       -0.0377
     11 C2          3.7967    6.2530    5.5289 c3      1  PAC        0.0039
     12 C11         4.1567    4.8240    6.0189 c3      1  PAC       -0.0377
     13 C12         5.2967    4.1730    5.1889 c3      1  PAC       -0.0490
     14 N2          4.8467    7.2040    5.9089 n3      1  PAC       -0.3277
     15 N1          4.2967   -1.2360    1.0489 n3      1  PAC       -0.2951
     16 H           1.5467    2.3440    2.1789 hc      1  PAC        0.0270
     17 H1          2.0167    2.2330    0.4889 hc      1  PAC        0.0270
     18 H2          1.8867   -0.0260    1.4189 hc      1  PAC        0.0283
     19 H3          2.9667    0.3940    2.7489 hc      1  PAC        0.0283
     20 H4          3.6767    0.3240   -0.2211 h1      1  PAC        0.0467
     21 H5          6.0067    0.8930    0.4189 hc      1  PAC        0.0283
     22 H6          5.5467    0.9840    2.1189 hc      1  PAC        0.0283
     23 H7          4.5267    2.7530   -0.1711 hc      1  PAC        0.0270
     24 H8          5.6567    3.2530    1.0689 hc      1  PAC        0.0270
     25 H9          3.2467    4.0340    1.4089 hc      1  PAC        0.0303
     26 H10         4.1967    2.1830    3.6589 hc      1  PAC        0.0272
     27 H11         2.9867    3.4240    3.7989 hc      1  PAC        0.0272
     28 H12         5.9567    3.8730    3.1789 hc      1  PAC        0.0303
     29 H13         4.5167    5.6940    2.1289 hc      1  PAC        0.0270
     30 H14         5.6367    6.2530    3.3589 hc      1  PAC        0.0270
     31 H15         2.6267    5.7740    3.7589 hc      1  PAC        0.0283
     32 H16         3.4267    7.3330    3.6689 hc      1  PAC        0.0283
     33 H17         2.8667    6.5640    6.0189 h1      1  PAC        0.0462
     34 H18         3.2567    4.1940    5.9589 hc      1  PAC        0.0283
     35 H19         4.4367    4.8540    7.0789 hc      1  PAC        0.0283
     36 H20         5.4567    3.1430    5.5389 hc      1  PAC        0.0270
     37 H21         6.2267    4.7130    5.3889 hc      1  PAC        0.0270
     38 H22         5.7267    6.9230    5.4889 hn      1  PAC        0.1187
     39 H23         4.9867    7.1630    6.9189 hn      1  PAC        0.1187
     40 C           0.4067   -2.6270   -9.9811 ca      2  DGE       -0.0315
     41 C5         -0.4133   -1.6170  -10.5111 ca      2  DGE        0.0750
     42 C6         -1.3833   -1.0160   -9.6911 ca      2  DGE       -0.0315
     43 C7         -1.5233   -1.4170   -8.3511 ca      2  DGE       -0.0556
     44 C8          0.2667   -3.0260   -8.6411 ca      2  DGE       -0.0556
     45 C9         -0.7133   -2.4370   -7.8011 ca      2  DGE       -0.0378
     46 C10        -0.8533   -2.9370   -6.3411 c3      2  DGE        0.0146
     47 C11         0.4167   -2.6470   -5.5111 ca      2  DGE       -0.0378
     48 C12         1.3567   -1.6570   -5.9011 ca      2  DGE       -0.0556
     49 C13         2.4767   -1.3770   -5.1111 ca      2  DGE       -0.0315
     50 C14         2.6867   -2.0570   -3.9011 ca      2  DGE        0.0750
     51 C15         1.7567   -3.0260   -3.4911 ca      2  DGE       -0.0315
     52 C16         0.6367   -3.3170   -4.2911 ca      2  DGE       -0.0556
     53 O           3.7867   -1.7160   -3.1411 os      2  DGE       -0.3434
     54 C17         4.0567   -2.2960   -1.8411 c3      2  DGE        0.0805
     55 C3          5.3167   -1.6270   -1.2511 c3      2  DGE        0.0905
     56 H           4.2167   -3.3770   -1.9211 h1      2  DGE        0.0600
     57 H1          3.1967   -2.1160   -1.1911 h1      2  DGE        0.0600
     58 C1          5.4167   -1.8170    0.2789 c3      2  DGE        0.0270
     59 H3          6.3567   -1.3870    0.6289 h1      2  DGE        0.0459
     60 H2          5.4567   -2.8970    0.4889 h1      2  DGE        0.0459
     61 O1          6.4867   -2.1760   -1.8611 oh      2  DGE       -0.3894
     62 H5          5.2667   -0.5460   -1.4711 h1      2  DGE        0.0639
     63 O2         -0.2433   -1.2760  -11.8411 os      2  DGE       -0.3434
     64 C18        -1.0333   -0.2670  -12.4911 c3      2  DGE        0.0790
     65 C4         -0.5833   -0.1760  -13.9711 c3      2  DGE        0.0750
     66 H6         -0.8933    0.7140  -12.0011 h1      2  DGE        0.0600
     67 H7         -2.0933   -0.5360  -12.4511 h1      2  DGE        0.0600
     68 O3          0.7367    0.3530  -14.0411 oh      2  DGE       -0.3910
     69 C2         -1.5333    0.7140  -14.7911 c3      2  DGE       -0.0367
     70 H8         -0.6033   -1.1870  -14.3911 h1      2  DGE        0.0622
     71 H9         -2.5633    0.3140  -14.7711 hc      2  DGE        0.0258
     72 H10        -1.2133    0.7530  -15.8411 hc      2  DGE        0.0258
     73 H11        -1.5633    1.7340  -14.3911 hc      2  DGE        0.0258
     74 H12        -2.0233   -0.2360  -10.0711 ha      2  DGE        0.0650
     75 H13         1.1567   -3.0960  -10.6011 ha      2  DGE        0.0650
     76 H14         0.9267   -3.7960   -8.2511 ha      2  DGE        0.0627
     77 H15        -2.2833   -0.9260   -7.7511 ha      2  DGE        0.0627
     78 H16         1.2167   -1.0870   -6.8111 ha      2  DGE        0.0627
     79 H17         3.1867   -0.6170   -5.4211 ha      2  DGE        0.0650
     80 H18         1.8867   -3.5670   -2.5511 ha      2  DGE        0.0650
     81 H19        -0.0733   -4.0560   -3.9311 ha      2  DGE        0.0627
     82 H20         1.2867   -0.1970  -13.4711 ho      2  DGE        0.2106
     83 H21         7.2167   -1.5670   -1.6811 ho      2  DGE        0.2106
     84 C19        -1.1533   -4.4570   -6.4011 c3      2  DGE       -0.0517
     85 H22        -0.2633   -5.0270   -6.7211 hc      2  DGE        0.0243
     86 H23        -1.9533   -4.6670   -7.1111 hc      2  DGE        0.0243
     87 H24        -1.4733   -4.8560   -5.4311 hc      2  DGE        0.0243
     88 C20        -2.0433   -2.2670   -5.6011 c3      2  DGE       -0.0517
     89 H25        -1.8933   -1.1870   -5.5011 hc      2  DGE        0.0243
     90 H26        -2.1533   -2.6670   -4.5811 hc      2  DGE        0.0243
     91 H27        -2.9933   -2.4370   -6.1211 hc      2  DGE        0.0243
     92 C          -6.1713   -0.4850    6.6669 ca      3  DGE       -0.0315
     93 C5         -7.2653   -1.0950    6.0449 ca      3  DGE        0.0750
     94 C6         -7.3693   -1.0550    4.6489 ca      3  DGE       -0.0315
     95 C7         -6.3993   -0.3940    3.8829 ca      3  DGE       -0.0556
     96 C8         -5.1913    0.1770    5.8979 ca      3  DGE       -0.0556
     97 C9         -5.2923    0.2390    4.4929 ca      3  DGE       -0.0378
     98 C10        -4.2023    0.9910    3.6829 c3      3  DGE        0.0146
     99 C11        -2.8163    0.3250    3.8169 ca      3  DGE       -0.0378
    100 C12        -2.6833   -1.0160    4.2469 ca      3  DGE       -0.0556
    101 C13        -1.4153   -1.6280    4.3169 ca      3  DGE       -0.0315
    102 C14        -0.2623   -0.9240    3.9359 ca      3  DGE        0.0750
    103 C15        -0.3893    0.4040    3.4889 ca      3  DGE       -0.0315
    104 C16        -1.6533    1.0090    3.4249 ca      3  DGE       -0.0556
    105 O           0.9437   -1.5800    3.9899 os      3  DGE       -0.3434
    106 C17         2.2017   -0.9540    3.6559 c3      3  DGE        0.0805
    107 C3          3.3297   -2.0000    3.8209 c3      3  DGE        0.0905
    108 H           2.3947   -0.0950    4.3129 h1      3  DGE        0.0600
    109 H1          2.1727   -0.6140    2.6169 h1      3  DGE        0.0600
    110 C1          4.6277   -1.5480    3.1239 c3      3  DGE        0.0270
    111 H3          5.4107   -2.3020    3.2389 h1      3  DGE        0.0459
    112 H2          4.9837   -0.6040    3.5499 h1      3  DGE        0.0459
    113 O1          3.5997   -2.2140    5.2069 oh      3  DGE       -0.3894
    114 H5          2.9927   -2.9390    3.3579 h1      3  DGE        0.0639
    115 O2         -8.2063   -1.7160    6.8519 os      3  DGE       -0.3434
    116 C18        -9.3733   -2.3830    6.3299 c3      3  DGE        0.0790
    117 C4        -10.2053   -2.9150    7.5179 c3      3  DGE        0.0750
    118 H6         -9.0893   -3.2110    5.6699 h1      3  DGE        0.0600
    119 H7         -9.9793   -1.6710    5.7499 h1      3  DGE        0.0600
    120 O3         -9.4963   -3.9710    8.1599 oh      3  DGE       -0.3910
    121 C2        -11.5823   -3.4310    7.0519 c3      3  DGE       -0.0367
    122 H8        -10.3643   -2.0840    8.2239 h1      3  DGE        0.0622
    123 H9        -12.1563   -2.6380    6.5699 hc      3  DGE        0.0258
    124 H10       -12.1623   -3.7960    7.9069 hc      3  DGE        0.0258
    125 H11       -11.4713   -4.2550    6.3319 hc      3  DGE        0.0258
    126 H12        -8.2133   -1.5210    4.1369 ha      3  DGE        0.0650
    127 H13        -6.0723   -0.5150    7.7499 ha      3  DGE        0.0650
    128 H14        -4.3463    0.6290    6.4089 ha      3  DGE        0.0627
    129 H15        -6.5253   -0.3900    2.8019 ha      3  DGE        0.0627
    130 H16        -3.5453   -1.6070    4.5319 ha      3  DGE        0.0627
    131 H17        -1.3253   -2.6570    4.6509 ha      3  DGE        0.0650
    132 H18         0.4867    0.9700    3.1699 ha      3  DGE        0.0650
    133 H19        -1.7133    2.0300    3.0509 ha      3  DGE        0.0627
    134 H20        -8.6153   -3.6180    8.3899 ho      3  DGE        0.2106
    135 H21         4.1507   -3.0180    5.2839 ho      3  DGE        0.2106
    136 C19        -4.1633    2.4540    4.2249 c3      3  DGE       -0.0517
    137 H22        -3.7493    2.4980    5.2329 hc      3  DGE        0.0243
    138 H23        -5.1803    2.8800    4.2579 hc      3  DGE        0.0243
    139 H24        -3.5693    3.1150    3.5829 hc      3  DGE        0.0243
    140 C20        -4.5373    1.0710    2.1719 c3      3  DGE       -0.0517
    141 H25        -4.5613    0.0730    1.7139 hc      3  DGE        0.0243
    142 H26        -3.7853    1.6600    1.6349 hc      3  DGE        0.0243
    143 H27        -5.5093    1.5540    1.9939 hc      3  DGE        0.0243
@<TRIPOS>BOND
     1     1     2    1
     2     2     3    1
     3     3     4    1
     4     4     5    1
     5     5     6    1
     6     1     6    1
     7     6     7    1
     8     7     8    1
     9     8     9    1
    10     9    10    1
    11    10    11    1
    12    11    12    1
    13    12    13    1
    14     8    13    1
    15    11    14    1
    16     3    15    1
    17     1    16    1
    18     1    17    1
    19     2    18    1
    20     2    19    1
    21     3    20    1
    22     4    21    1
    23     4    22    1
    24     5    23    1
    25     5    24    1
    26     6    25    1
    27     7    26    1
    28     7    27    1
    29     8    28    1
    30     9    29    1
    31     9    30    1
    32    10    31    1
    33    10    32    1
    34    11    33    1
    35    12    34    1
    36    12    35    1
    37    13    36    1
    38    13    37    1
    39    14    38    1
    40    14    39    1
    41    40    41   ar
    42    41    42   ar
    43    42    43   ar
    44    40    44   ar
    45    44    45   ar
    46    45    43   ar
    47    45    46    1
    48    46    47    1
    49    47    48   ar
    50    48    49   ar
    51    49    50   ar
    52    50    51   ar
    53    51    52   ar
    54    47    52   ar
    55    50    53    1
    56    53    54    1
    57    54    55    1
    58    54    56    1
    59    54    57    1
    60    55    58    1
    61    58    59    1
    62    58    60    1
    63    55    61    1
    64    55    62    1
    65    41    63    1
    66    63    64    1
    67    64    65    1
    68    64    66    1
    69    64    67    1
    70    65    68    1
    71    65    69    1
    72    65    70    1
    73    69    71    1
    74    69    72    1
    75    69    73    1
    76    42    74    1
    77    40    75    1
    78    44    76    1
    79    43    77    1
    80    48    78    1
    81    49    79    1
    82    51    80    1
    83    52    81    1
    84    68    82    1
    85    61    83    1
    86    46    84    1
    87    84    85    1
    88    84    86    1
    89    84    87    1
    90    46    88    1
    91    88    89    1
    92    88    90    1
    93    88    91    1
    94    15    58    1
    95    92    93   ar
    96    93    94   ar
    97    94    95   ar
    98    92    96   ar
    99    96    97   ar
   100    97    95   ar
   101    97    98    1
   102    98    99    1
   103    99   100   ar
   104   100   101   ar
   105   101   102   ar
   106   102   103   ar
   107   103   104   ar
   108    99   104   ar
   109   102   105    1
   110   105   106    1
   111   106   107    1
   112   106   108    1
   113   106   109    1
   114   107   110    1
   115   110   111    1
   116   110   112    1
   117   107   113    1
   118   107   114    1
   119    93   115    1
   120   115   116    1
   121   116   117    1
   122   116   118    1
   123   116   119    1
   124   117   120    1
   125   117   121    1
   126   117   122    1
   127   121   123    1
   128   121   124    1
   129   121   125    1
   130    94   126    1
   131    92   127    1
   132    96   128    1
   133    95   129    1
   134   100   130    1
   135   101   131    1
   136   103   132    1
   137   104   133    1
   138   120   134    1
   139   113   135    1
   140    98   136    1
   141   136   137    1
   142   136   138    1
   143   136   139    1
   144    98   140    1
   145   140   141    1
   146   140   142    1
   147   140   143    1
   148    15   110    1
@<TRIPOS>SUBSTRUCTURE
     1 PAC          1 RESIDUE
     2 DGE          1 RESIDUE
     3 DGE          1 RESIDUE