@<TRIPOS>MOLECULE
PACDGE2-2
   143   148  3  0  0
SMALL
gas

@<TRIPOS>ATOM
      1 C          -5.7222   -1.7512   -8.7929 c3      1  PAC       -0.0490
      2 C3         -5.5022   -3.2612   -8.5529 c3      1  PAC       -0.0377
      3 C1         -4.2622   -3.8012   -9.3129 c3      1  PAC        0.0039
      4 C4         -3.0022   -2.9512   -9.0239 c3      1  PAC       -0.0377
      5 C5         -3.2522   -1.4412   -9.2739 c3      1  PAC       -0.0490
      6 C6         -4.4622   -0.8912   -8.4629 c3      1  PAC       -0.0411
      7 C7         -4.2222   -0.8312   -6.9229 c3      1  PAC       -0.0476
      8 C8         -3.0422    0.0588   -6.4339 c3      1  PAC       -0.0411
      9 C9         -3.2222    1.5688   -6.7439 c3      1  PAC       -0.0489
     10 C10        -4.3022    2.2488   -5.8639 c3      1  PAC       -0.0373
     11 C2         -4.0722    2.0288   -4.3539 c3      1  PAC        0.0098
     12 C11        -3.9122    0.5088   -4.0529 c3      1  PAC       -0.0373
     13 C12        -2.8022   -0.1412   -4.9129 c3      1  PAC       -0.0489
     14 N2         -2.9022    2.7888   -3.8929 n3      1  PAC       -0.2951
     15 N1         -4.0222   -5.2012   -8.9729 n3      1  PAC       -0.3277
     16 H          -6.5722   -1.4012   -8.1939 hc      1  PAC        0.0270
     17 H1         -5.9922   -1.5912   -9.8439 hc      1  PAC        0.0270
     18 H2         -6.3922   -3.8112   -8.8729 hc      1  PAC        0.0283
     19 H3         -5.3922   -3.4612   -7.4839 hc      1  PAC        0.0283
     20 H4         -4.4722   -3.7312  -10.3829 h1      1  PAC        0.0462
     21 H5         -2.1722   -3.2912   -9.6639 hc      1  PAC        0.0283
     22 H6         -2.6722   -3.1012   -7.9839 hc      1  PAC        0.0283
     23 H7         -3.4522   -1.3012  -10.3439 hc      1  PAC        0.0270
     24 H8         -2.3422   -0.8712   -9.0629 hc      1  PAC        0.0270
     25 H9         -4.6622    0.1188   -8.8229 hc      1  PAC        0.0303
     26 H10        -4.0522   -1.8512   -6.5529 hc      1  PAC        0.0272
     27 H11        -5.1522   -0.4912   -6.4539 hc      1  PAC        0.0272
     28 H12        -2.1222   -0.2812   -6.9439 hc      1  PAC        0.0303
     29 H13        -3.4522    1.7288   -7.8029 hc      1  PAC        0.0270
     30 H14        -2.2622    2.0788   -6.5739 hc      1  PAC        0.0270
     31 H15        -5.2822    1.8588   -6.1439 hc      1  PAC        0.0283
     32 H16        -4.3222    3.3288   -6.0829 hc      1  PAC        0.0283
     33 H17        -4.9622    2.3988   -3.8239 h1      1  PAC        0.0467
     34 H18        -4.8722    0.0088   -4.2439 hc      1  PAC        0.0283
     35 H19        -3.7022    0.3288   -2.9939 hc      1  PAC        0.0283
     36 H20        -2.7322   -1.2112   -4.6839 hc      1  PAC        0.0270
     37 H21        -1.8322    0.2988   -4.6439 hc      1  PAC        0.0270
     38 H24        -3.7922   -5.2812   -7.9839 hn      1  PAC        0.1187
     39 H25        -3.2022   -5.5412   -9.4829 hn      1  PAC        0.1187
     40 C           2.0878    3.5288    1.2561 ca      2  DGE       -0.0315
     41 C5          0.6978    3.4588    1.0971 ca      2  DGE        0.0750
     42 C6         -0.1122    3.2588    2.2271 ca      2  DGE       -0.0315
     43 C7          0.4578    3.1288    3.4971 ca      2  DGE       -0.0556
     44 C8          2.6678    3.3988    2.5371 ca      2  DGE       -0.0556
     45 C9          1.8578    3.1988    3.6761 ca      2  DGE       -0.0378
     46 C10         2.5378    3.0688    5.0661 c3      2  DGE        0.0146
     47 C11         3.2878    4.3588    5.4471 ca      2  DGE       -0.0378
     48 C12         2.9278    5.6088    4.8961 ca      2  DGE       -0.0556
     49 C13         3.5878    6.7888    5.2771 ca      2  DGE       -0.0315
     50 C14         4.6178    6.7488    6.2371 ca      2  DGE        0.0750
     51 C15         4.9678    5.5188    6.8161 ca      2  DGE       -0.0315
     52 C16         4.3078    4.3388    6.4261 ca      2  DGE       -0.0556
     53 O           5.2178    7.9388    6.5871 os      2  DGE       -0.3434
     54 C17         6.2478    8.0388    7.5871 c3      2  DGE        0.0790
     55 C3          6.6678    9.5188    7.7261 c3      2  DGE        0.0750
     56 H           7.1178    7.4288    7.3161 h1      2  DGE        0.0600
     57 H1          5.8478    7.6888    8.5461 h1      2  DGE        0.0600
     58 C1          7.4078    9.7788    9.0461 c3      2  DGE       -0.0367
     59 H2          6.7778    9.5288    9.9061 hc      2  DGE        0.0258
     60 H3          7.6978   10.8288    9.1361 hc      2  DGE        0.0258
     61 H4          8.3178    9.1688    9.1071 hc      2  DGE        0.0258
     62 O1          7.5178    9.8888    6.6361 oh      2  DGE       -0.3910
     63 H5          5.7578   10.1388    7.7071 h1      2  DGE        0.0622
     64 O2          0.1878    3.5788   -0.1829 os      2  DGE       -0.3434
     65 C18        -1.2122    3.4188   -0.4829 c3      2  DGE        0.0805
     66 C4         -1.3922    3.5088   -2.0139 c3      2  DGE        0.0905
     67 H6         -1.8022    4.1988    0.0061 h1      2  DGE        0.0600
     68 H7         -1.5522    2.4388   -0.1339 h1      2  DGE        0.0600
     69 O3         -1.2622    4.8688   -2.4329 oh      2  DGE       -0.3894
     70 C2         -2.7722    2.9488   -2.4239 c3      2  DGE        0.0270
     71 H8         -0.6222    2.8988   -2.4939 h1      2  DGE        0.0639
     72 H10        -2.8922    1.9788   -1.9329 h1      2  DGE        0.0459
     73 H11        -3.5622    3.6088   -2.0539 h1      2  DGE        0.0459
     74 H12        -1.1922    3.2088    2.1271 ha      2  DGE        0.0650
     75 H13         2.7278    3.6888    0.3971 ha      2  DGE        0.0650
     76 H14         3.7478    3.4788    2.6361 ha      2  DGE        0.0627
     77 H15        -0.2122    2.9888    4.3371 ha      2  DGE        0.0627
     78 H16         2.1278    5.6888    4.1671 ha      2  DGE        0.0627
     79 H17         3.3078    7.7388    4.8371 ha      2  DGE        0.0650
     80 H18         5.7478    5.4588    7.5661 ha      2  DGE        0.0650
     81 H19         4.5978    3.4088    6.9071 ha      2  DGE        0.0627
     82 H20        -0.3722    5.1588   -2.1539 ho      2  DGE        0.2106
     83 H21         7.6178   10.8588    6.6461 ho      2  DGE        0.2106
     84 C19         3.4978    1.8488    4.9871 c3      2  DGE       -0.0517
     85 H22         4.3778    2.0588    4.3561 hc      2  DGE        0.0243
     86 H23         2.9878    0.9688    4.5661 hc      2  DGE        0.0243
     87 H24         3.8778    1.5488    5.9761 hc      2  DGE        0.0243
     88 C20         1.5278    2.7788    6.2071 c3      2  DGE       -0.0517
     89 H25         0.8178    3.5988    6.3161 hc      2  DGE        0.0243
     90 H26         2.0378    2.6488    7.1671 hc      2  DGE        0.0243
     91 H27         0.9578    1.8488    6.0161 hc      2  DGE        0.0243
     92 C           0.7048   -5.0722    4.1741 ca      3  DGE       -0.0315
     93 C5          1.4208   -6.2712    4.0911 ca      3  DGE        0.0750
     94 C6          1.1748   -7.1442    3.0241 ca      3  DGE       -0.0315
     95 C7          0.2078   -6.8312    2.0601 ca      3  DGE       -0.0556
     96 C8         -0.2662   -4.7542    3.2031 ca      3  DGE       -0.0556
     97 C9         -0.5362   -5.6312    2.1321 ca      3  DGE       -0.0378
     98 C10        -1.6252   -5.2532    1.0931 c3      3  DGE        0.0146
     99 C11        -1.2532   -3.9802    0.3011 ca      3  DGE       -0.0378
    100 C12         0.0808   -3.5152    0.2381 ca      3  DGE       -0.0556
    101 C13         0.4128   -2.3802   -0.5289 ca      3  DGE       -0.0315
    102 C14        -0.5712   -1.7052   -1.2669 ca      3  DGE        0.0750
    103 C15        -1.8982   -2.1732   -1.2239 ca      3  DGE       -0.0315
    104 C16        -2.2232   -3.3012   -0.4549 ca      3  DGE       -0.0556
    105 O          -0.1852   -0.6262   -2.0249 os      3  DGE       -0.3434
    106 C17        -1.1092    0.1678   -2.7999 c3      3  DGE        0.0805
    107 C3         -0.3132    1.2778   -3.5269 c3      3  DGE        0.0905
    108 H          -1.8702    0.6228   -2.1509 h1      3  DGE        0.0600
    109 H1         -1.6012   -0.4682   -3.5399 h1      3  DGE        0.0600
    110 C1         -1.1382    1.9168   -4.6609 c3      3  DGE        0.0270
    111 H2         -1.4342    1.1578   -5.4009 h1      3  DGE        0.0459
    112 H3         -0.5582    2.6888   -5.1719 h1      3  DGE        0.0459
    113 O1          0.0638    2.2968   -2.5989 oh      3  DGE       -0.3894
    114 H5          0.5868    0.8208   -3.9629 h1      3  DGE        0.0639
    115 O2          2.3518   -6.5392    5.0841 os      3  DGE       -0.3434
    116 C18         3.1548   -7.7362    5.1061 c3      3  DGE        0.0790
    117 C4          4.0388   -7.7092    6.3721 c3      3  DGE        0.0750
    118 H6          3.7838   -7.8032    4.2121 h1      3  DGE        0.0600
    119 H7          2.5018   -8.6222    5.1361 h1      3  DGE        0.0600
    120 O3          5.0128   -6.6752    6.2511 oh      3  DGE       -0.3910
    121 C2          4.7508   -9.0602    6.5891 c3      3  DGE       -0.0367
    122 H8          3.3888   -7.5142    7.2411 h1      3  DGE        0.0622
    123 H9          4.0288   -9.8702    6.7031 hc      3  DGE        0.0258
    124 H10         5.3668   -9.0262    7.4961 hc      3  DGE        0.0258
    125 H11         5.4028   -9.3032    5.7381 hc      3  DGE        0.0258
    126 H12         1.7178   -8.0852    2.9361 ha      3  DGE        0.0650
    127 H13         0.8908   -4.3802    4.9931 ha      3  DGE        0.0650
    128 H14        -0.7962   -3.8092    3.2871 ha      3  DGE        0.0627
    129 H15         0.0528   -7.5422    1.2511 ha      3  DGE        0.0627
    130 H16         0.8788   -4.0152    0.7731 ha      3  DGE        0.0627
    131 H17         1.4408   -2.0322   -0.5669 ha      3  DGE        0.0650
    132 H18        -2.6802   -1.6792   -1.8009 ha      3  DGE        0.0650
    133 H19        -3.2562   -3.6472   -0.4679 ha      3  DGE        0.0627
    134 H20         4.5238   -5.8502    6.0631 ho      3  DGE        0.2106
    135 H21         0.7348    2.8618   -3.0309 ho      3  DGE        0.2106
    136 C19        -2.9532   -5.0402    1.8831 c3      3  DGE       -0.0517
    137 H22        -2.9172   -4.1372    2.4931 hc      3  DGE        0.0243
    138 H23        -3.1422   -5.8942    2.5541 hc      3  DGE        0.0243
    139 H24        -3.8212   -4.9672    1.2171 hc      3  DGE        0.0243
    140 C20        -1.8792   -6.3832    0.0641 c3      3  DGE       -0.0517
    141 H25        -0.9882   -6.5762   -0.5489 hc      3  DGE        0.0243
    142 H26        -2.6942   -6.1162   -0.6189 hc      3  DGE        0.0243
    143 H27        -2.1682   -7.3242    0.5551 hc      3  DGE        0.0243
@<TRIPOS>BOND
     1     1     2    1
     2     2     3    1
     3     3     4    1
     4     4     5    1
     5     5     6    1
     6     1     6    1
     7     6     7    1
     8     7     8    1
     9     8     9    1
    10     9    10    1
    11    10    11    1
    12    11    12    1
    13    12    13    1
    14     8    13    1
    15    11    14    1
    16     3    15    1
    17     1    16    1
    18     1    17    1
    19     2    18    1
    20     2    19    1
    21     3    20    1
    22     4    21    1
    23     4    22    1
    24     5    23    1
    25     5    24    1
    26     6    25    1
    27     7    26    1
    28     7    27    1
    29     8    28    1
    30     9    29    1
    31     9    30    1
    32    10    31    1
    33    10    32    1
    34    11    33    1
    35    12    34    1
    36    12    35    1
    37    13    36    1
    38    13    37    1
    39    15    38    1
    40    15    39    1
    41    40    41   ar
    42    41    42   ar
    43    42    43   ar
    44    40    44   ar
    45    44    45   ar
    46    45    43   ar
    47    45    46    1
    48    46    47    1
    49    47    48   ar
    50    48    49   ar
    51    49    50   ar
    52    50    51   ar
    53    51    52   ar
    54    47    52   ar
    55    50    53    1
    56    53    54    1
    57    54    55    1
    58    54    56    1
    59    54    57    1
    60    55    58    1
    61    58    59    1
    62    58    60    1
    63    58    61    1
    64    55    62    1
    65    55    63    1
    66    41    64    1
    67    64    65    1
    68    65    66    1
    69    65    67    1
    70    65    68    1
    71    66    69    1
    72    66    70    1
    73    66    71    1
    74    70    72    1
    75    70    73    1
    76    42    74    1
    77    40    75    1
    78    44    76    1
    79    43    77    1
    80    48    78    1
    81    49    79    1
    82    51    80    1
    83    52    81    1
    84    69    82    1
    85    62    83    1
    86    46    84    1
    87    84    85    1
    88    84    86    1
    89    84    87    1
    90    46    88    1
    91    88    89    1
    92    88    90    1
    93    88    91    1
    94    14    70    1
    95    92    93   ar
    96    93    94   ar
    97    94    95   ar
    98    92    96   ar
    99    96    97   ar
   100    97    95   ar
   101    97    98    1
   102    98    99    1
   103    99   100   ar
   104   100   101   ar
   105   101   102   ar
   106   102   103   ar
   107   103   104   ar
   108    99   104   ar
   109   102   105    1
   110   105   106    1
   111   106   107    1
   112   106   108    1
   113   106   109    1
   114   107   110    1
   115   110   111    1
   116   110   112    1
   117   107   113    1
   118   107   114    1
   119    93   115    1
   120   115   116    1
   121   116   117    1
   122   116   118    1
   123   116   119    1
   124   117   120    1
   125   117   121    1
   126   117   122    1
   127   121   123    1
   128   121   124    1
   129   121   125    1
   130    94   126    1
   131    92   127    1
   132    96   128    1
   133    95   129    1
   134   100   130    1
   135   101   131    1
   136   103   132    1
   137   104   133    1
   138   120   134    1
   139   113   135    1
   140    98   136    1
   141   136   137    1
   142   136   138    1
   143   136   139    1
   144    98   140    1
   145   140   141    1
   146   140   142    1
   147   140   143    1
   148    14   110    1
@<TRIPOS>SUBSTRUCTURE
     1 PAC          1 RESIDUE
     2 DGE          1 RESIDUE
     3 DGE          1 RESIDUE