@<TRIPOS>MOLECULE
PACDGE2-3
   143   148  3  0  0
SMALL
gas

@<TRIPOS>ATOM
      1 C          -4.3099   -0.9611   -6.8362 c3      1  PAC       -0.0490
      2 C3         -4.0899   -2.4711   -6.5962 c3      1  PAC       -0.0377
      3 C2         -2.8499   -3.0111   -7.3562 c3      1  PAC        0.0039
      4 C4         -1.5899   -2.1611   -7.0662 c3      1  PAC       -0.0377
      5 C5         -1.8399   -0.6511   -7.3162 c3      1  PAC       -0.0490
      6 C6         -3.0499   -0.1011   -6.5062 c3      1  PAC       -0.0411
      7 C7         -2.8099   -0.0411   -4.9662 c3      1  PAC       -0.0476
      8 C8         -1.6299    0.8489   -4.4762 c3      1  PAC       -0.0411
      9 C9         -1.8099    2.3589   -4.7962 c3      1  PAC       -0.0489
     10 C10        -2.8899    3.0389   -3.9062 c3      1  PAC       -0.0373
     11 C1         -2.6599    2.8189   -2.3962 c3      1  PAC        0.0098
     12 C11        -2.4999    1.2989   -2.0962 c3      1  PAC       -0.0373
     13 C12        -1.3899    0.6489   -2.9562 c3      1  PAC       -0.0489
     14 N1         -1.4899    3.5889   -1.9362 n3      1  PAC       -0.2951
     15 N2         -2.6099   -4.4111   -7.0162 n3      1  PAC       -0.3277
     16 H          -5.1599   -0.6111   -6.2362 hc      1  PAC        0.0270
     17 H1         -4.5799   -0.8011   -7.8862 hc      1  PAC        0.0270
     18 H2         -4.9799   -3.0211   -6.9162 hc      1  PAC        0.0283
     19 H3         -3.9799   -2.6711   -5.5162 hc      1  PAC        0.0283
     20 H4         -3.0599   -2.9411   -8.4262 h1      1  PAC        0.0462
     21 H5         -0.7599   -2.5011   -7.7062 hc      1  PAC        0.0283
     22 H6         -1.2599   -2.3111   -6.0262 hc      1  PAC        0.0283
     23 H7         -2.0399   -0.5111   -8.3862 hc      1  PAC        0.0270
     24 H8         -0.9299   -0.0811   -7.1062 hc      1  PAC        0.0270
     25 H9         -3.2499    0.9089   -6.8662 hc      1  PAC        0.0303
     26 H10        -2.6399   -1.0611   -4.5962 hc      1  PAC        0.0272
     27 H11        -3.7399    0.2989   -4.4962 hc      1  PAC        0.0272
     28 H12        -0.7099    0.5089   -4.9862 hc      1  PAC        0.0303
     29 H13        -2.0399    2.5189   -5.8462 hc      1  PAC        0.0270
     30 H14        -0.8499    2.8689   -4.6162 hc      1  PAC        0.0270
     31 H15        -3.8799    2.6489   -4.1862 hc      1  PAC        0.0283
     32 H16        -2.9099    4.1189   -4.1262 hc      1  PAC        0.0283
     33 H17        -3.5499    3.1889   -1.8662 h1      1  PAC        0.0467
     34 H18        -3.4599    0.7989   -2.2862 hc      1  PAC        0.0283
     35 H19        -2.2899    1.1189   -1.0362 hc      1  PAC        0.0283
     36 H20        -1.3199   -0.4211   -2.7262 hc      1  PAC        0.0270
     37 H21        -0.4199    1.0889   -2.6862 hc      1  PAC        0.0270
     38 H24        -2.3799   -4.4911   -6.0262 hn      1  PAC        0.1187
     39 H25        -1.7899   -4.7511   -7.5262 hn      1  PAC        0.1187
     40 C           3.5001    4.3189    3.2138 ca      2  DGE       -0.0315
     41 C5          2.1101    4.2489    3.0538 ca      2  DGE        0.0750
     42 C6          1.3001    4.0489    4.1838 ca      2  DGE       -0.0315
     43 C7          1.8701    3.9189    5.4538 ca      2  DGE       -0.0556
     44 C8          4.0801    4.1889    4.4938 ca      2  DGE       -0.0556
     45 C9          3.2701    3.9889    5.6338 ca      2  DGE       -0.0378
     46 C10         3.9501    3.8589    7.0238 c3      2  DGE        0.0146
     47 C11         4.7001    5.1489    7.4038 ca      2  DGE       -0.0378
     48 C12         4.3401    6.3989    6.8538 ca      2  DGE       -0.0556
     49 C13         5.0101    7.5789    7.2338 ca      2  DGE       -0.0315
     50 C14         6.0301    7.5389    8.1938 ca      2  DGE        0.0750
     51 C15         6.3801    6.3089    8.7738 ca      2  DGE       -0.0315
     52 C16         5.7201    5.1289    8.3838 ca      2  DGE       -0.0556
     53 O           6.6301    8.7289    8.5438 os      2  DGE       -0.3434
     54 C17         7.6601    8.8289    9.5438 c3      2  DGE        0.0790
     55 C3          8.0801   10.3089    9.6838 c3      2  DGE        0.0750
     56 H           8.5301    8.2189    9.2738 h1      2  DGE        0.0600
     57 H1          7.2601    8.4789   10.5038 h1      2  DGE        0.0600
     58 C1          8.8201   10.5689   11.0038 c3      2  DGE       -0.0367
     59 H2          8.1901   10.3189   11.8638 hc      2  DGE        0.0258
     60 H3          9.1101   11.6189   11.0938 hc      2  DGE        0.0258
     61 H4          9.7301    9.9589   11.0638 hc      2  DGE        0.0258
     62 O1          8.9301   10.6789    8.5938 oh      2  DGE       -0.3910
     63 H5          7.1701   10.9289    9.6638 h1      2  DGE        0.0622
     64 O2          1.6001    4.3689    1.7738 os      2  DGE       -0.3434
     65 C18         0.2001    4.2089    1.4738 c3      2  DGE        0.0805
     66 C4          0.0201    4.2989   -0.0562 c3      2  DGE        0.0905
     67 H6         -0.3899    4.9889    1.9638 h1      2  DGE        0.0600
     68 H7         -0.1399    3.2289    1.8238 h1      2  DGE        0.0600
     69 O3          0.1501    5.6589   -0.4762 oh      2  DGE       -0.3894
     70 C2         -1.3599    3.7389   -0.4662 c3      2  DGE        0.0270
     71 H8          0.7901    3.6789   -0.5362 h1      2  DGE        0.0639
     72 H9         -1.4899    2.7689    0.0238 h1      2  DGE        0.0459
     73 H10        -2.1499    4.3989   -0.0962 h1      2  DGE        0.0459
     74 H12         0.2201    3.9989    4.0838 ha      2  DGE        0.0650
     75 H13         4.1401    4.4789    2.3538 ha      2  DGE        0.0650
     76 H14         5.1601    4.2689    4.5938 ha      2  DGE        0.0627
     77 H15         1.2001    3.7789    6.2938 ha      2  DGE        0.0627
     78 H16         3.5401    6.4789    6.1238 ha      2  DGE        0.0627
     79 H17         4.7201    8.5289    6.7938 ha      2  DGE        0.0650
     80 H18         7.1601    6.2489    9.5238 ha      2  DGE        0.0650
     81 H19         6.0101    4.1989    8.8638 ha      2  DGE        0.0627
     82 H20         1.0401    5.9489   -0.1962 ho      2  DGE        0.2106
     83 H21         9.0301   11.6489    8.6038 ho      2  DGE        0.2106
     84 C19         4.9201    2.6389    6.9438 c3      2  DGE       -0.0517
     85 H22         5.7901    2.8489    6.3138 hc      2  DGE        0.0243
     86 H23         4.4001    1.7589    6.5238 hc      2  DGE        0.0243
     87 H24         5.2901    2.3389    7.9338 hc      2  DGE        0.0243
     88 C20         2.9401    3.5689    8.1638 c3      2  DGE       -0.0517
     89 H25         2.2301    4.3889    8.2738 hc      2  DGE        0.0243
     90 H26         3.4501    3.4389    9.1238 hc      2  DGE        0.0243
     91 H27         2.3701    2.6389    7.9738 hc      2  DGE        0.0243
     92 C          -2.3219   -2.8061   -3.7402 ca      3  DGE       -0.0315
     93 C5         -1.9189   -1.8061   -2.8492 ca      3  DGE        0.0750
     94 C6         -2.2329   -1.9321   -1.4902 ca      3  DGE       -0.0315
     95 C7         -2.9599   -3.0371   -1.0282 ca      3  DGE       -0.0556
     96 C8         -3.0509   -3.9211   -3.2762 ca      3  DGE       -0.0556
     97 C9         -3.3879   -4.0531   -1.9132 ca      3  DGE       -0.0378
     98 C10        -4.2049   -5.2861   -1.4462 c3      3  DGE        0.0146
     99 C11        -3.4329   -6.6071   -1.6532 ca      3  DGE       -0.0378
    100 C12        -2.0279   -6.6201   -1.8222 ca      3  DGE       -0.0556
    101 C13        -1.3299   -7.8361   -1.9602 ca      3  DGE       -0.0315
    102 C14        -2.0139   -9.0601   -1.9072 ca      3  DGE        0.0750
    103 C15        -3.4089   -9.0561   -1.7202 ca      3  DGE       -0.0315
    104 C16        -4.0989   -7.8421   -1.5872 ca      3  DGE       -0.0556
    105 O          -1.2789  -10.2161   -2.0122 os      3  DGE       -0.3434
    106 C17        -1.8699  -11.5341   -2.0052 c3      3  DGE        0.0790
    107 C3         -0.7389  -12.5811   -2.1272 c3      3  DGE        0.0750
    108 H          -2.5729  -11.6491   -2.8412 h1      3  DGE        0.0600
    109 H1         -2.4039  -11.6871   -1.0632 h1      3  DGE        0.0600
    110 C1         -1.2259  -13.9911   -1.7402 c3      3  DGE       -0.0367
    111 H2         -1.6009  -14.0021   -0.7052 hc      3  DGE        0.0258
    112 H3         -0.4119  -14.7161   -1.8202 hc      3  DGE        0.0258
    113 H4         -2.0449  -14.3071   -2.3942 hc      3  DGE        0.0258
    114 O1         -0.2449  -12.6141   -3.4672 oh      3  DGE       -0.3910
    115 H5          0.0701  -12.2901   -1.4402 h1      3  DGE        0.0622
    116 O2         -1.2209   -0.7251   -3.3642 os      3  DGE       -0.3434
    117 C18        -0.7459    0.3659   -2.5482 c3      3  DGE        0.0805
    118 C4         -0.0549    1.3989   -3.4652 c3      3  DGE        0.0905
    119 H6         -0.0429    0.0099   -1.7872 h1      3  DGE        0.0600
    120 H7         -1.5959    0.8439   -2.0362 h1      3  DGE        0.0600
    121 O3          1.1511    0.8429   -3.9832 oh      3  DGE       -0.3894
    122 C2          0.2681    2.6999   -2.7012 c3      3  DGE        0.0270
    123 H8         -0.7439    1.6409   -4.2902 h1      3  DGE        0.0639
    124 H10         0.7501    3.4239   -3.3682 h1      3  DGE        0.0459
    125 H9          0.9441    2.5029   -1.8572 h1      3  DGE        0.0459
    126 H12        -1.9309   -1.1661   -0.7732 ha      3  DGE        0.0650
    127 H13        -2.0789   -2.7271   -4.7972 ha      3  DGE        0.0650
    128 H14        -3.3389   -4.6891   -3.9902 ha      3  DGE        0.0627
    129 H15        -3.1789   -3.0881    0.0358 ha      3  DGE        0.0627
    130 H16        -1.4539   -5.7011   -1.8482 ha      3  DGE        0.0627
    131 H17        -0.2529   -7.8321   -2.0912 ha      3  DGE        0.0650
    132 H18        -3.9639   -9.9931   -1.6572 ha      3  DGE        0.0650
    133 H19        -5.1739   -7.8811   -1.4192 ha      3  DGE        0.0627
    134 H20         0.9091   -0.0021   -4.4112 ho      3  DGE        0.2106
    135 H21         0.5941  -13.1161   -3.4652 ho      3  DGE        0.2106
    136 C19        -5.5309   -5.2901   -2.2682 c3      3  DGE       -0.0517
    137 H22        -5.3539   -5.5371   -3.3152 hc      3  DGE        0.0243
    138 H23        -6.0109   -4.2981   -2.2302 hc      3  DGE        0.0243
    139 H24        -6.2609   -6.0051   -1.8692 hc      3  DGE        0.0243
    140 C20        -4.5949   -5.2051    0.0518 c3      3  DGE       -0.0517
    141 H25        -3.7069   -5.2191    0.6988 hc      3  DGE        0.0243
    142 H26        -5.2229   -6.0551    0.3408 hc      3  DGE        0.0243
    143 H27        -5.1679   -4.2921    0.2758 hc      3  DGE        0.0243
@<TRIPOS>BOND
     1     1     2    1
     2     2     3    1
     3     3     4    1
     4     4     5    1
     5     5     6    1
     6     1     6    1
     7     6     7    1
     8     7     8    1
     9     8     9    1
    10     9    10    1
    11    10    11    1
    12    11    12    1
    13    12    13    1
    14     8    13    1
    15    11    14    1
    16     3    15    1
    17     1    16    1
    18     1    17    1
    19     2    18    1
    20     2    19    1
    21     3    20    1
    22     4    21    1
    23     4    22    1
    24     5    23    1
    25     5    24    1
    26     6    25    1
    27     7    26    1
    28     7    27    1
    29     8    28    1
    30     9    29    1
    31     9    30    1
    32    10    31    1
    33    10    32    1
    34    11    33    1
    35    12    34    1
    36    12    35    1
    37    13    36    1
    38    13    37    1
    39    15    38    1
    40    15    39    1
    41    40    41   ar
    42    41    42   ar
    43    42    43   ar
    44    40    44   ar
    45    44    45   ar
    46    43    45   ar
    47    45    46    1
    48    46    47    1
    49    47    48   ar
    50    48    49   ar
    51    49    50   ar
    52    50    51   ar
    53    51    52   ar
    54    47    52   ar
    55    50    53    1
    56    53    54    1
    57    54    55    1
    58    54    56    1
    59    54    57    1
    60    55    58    1
    61    58    59    1
    62    58    60    1
    63    58    61    1
    64    55    62    1
    65    55    63    1
    66    41    64    1
    67    64    65    1
    68    65    66    1
    69    65    67    1
    70    65    68    1
    71    66    69    1
    72    66    70    1
    73    66    71    1
    74    70    72    1
    75    70    73    1
    76    42    74    1
    77    40    75    1
    78    44    76    1
    79    43    77    1
    80    48    78    1
    81    49    79    1
    82    51    80    1
    83    52    81    1
    84    69    82    1
    85    62    83    1
    86    46    84    1
    87    84    85    1
    88    84    86    1
    89    84    87    1
    90    46    88    1
    91    88    89    1
    92    88    90    1
    93    88    91    1
    94    14    70    1
    95    92    93   ar
    96    93    94   ar
    97    94    95   ar
    98    92    96   ar
    99    96    97   ar
   100    95    97   ar
   101    97    98    1
   102    98    99    1
   103    99   100   ar
   104   100   101   ar
   105   101   102   ar
   106   102   103   ar
   107   103   104   ar
   108    99   104   ar
   109   102   105    1
   110   105   106    1
   111   106   107    1
   112   106   108    1
   113   106   109    1
   114   107   110    1
   115   110   111    1
   116   110   112    1
   117   110   113    1
   118   107   114    1
   119   107   115    1
   120    93   116    1
   121   116   117    1
   122   117   118    1
   123   117   119    1
   124   117   120    1
   125   118   121    1
   126   118   122    1
   127   118   123    1
   128   122   124    1
   129   122   125    1
   130    94   126    1
   131    92   127    1
   132    96   128    1
   133    95   129    1
   134   100   130    1
   135   101   131    1
   136   103   132    1
   137   104   133    1
   138   121   134    1
   139   114   135    1
   140    98   136    1
   141   136   137    1
   142   136   138    1
   143   136   139    1
   144    98   140    1
   145   140   141    1
   146   140   142    1
   147   140   143    1
   148    14   122    1
@<TRIPOS>SUBSTRUCTURE
     1 PAC          1 RESIDUE
     2 DGE          1 RESIDUE
     3 DGE          1 RESIDUE
