@<TRIPOS>MOLECULE
EMB
 21 21 0 0 0
SMALL
GASTEIGER

@<TRIPOS>ATOM
      1 C          -0.7183    1.1964   -0.0469 C.ar    1  EMB        -0.0583
      2 C           0.6786    1.2489   -0.0406 C.ar    1  EMB        -0.0586
      3 C           1.4326    0.0702   -0.0692 C.ar    1  EMB        -0.0504
      4 C           2.9313    0.1119   -0.1179 C.3     1  EMB        -0.0397
      5 C           0.7663   -1.1602   -0.0643 C.ar    1  EMB        -0.0586
      6 C          -0.6303   -1.2130   -0.0702 C.ar    1  EMB        -0.0583
      7 C          -1.3840   -0.0340   -0.0882 C.ar    1  EMB        -0.0476
      8 C2         -2.8901   -0.0895   -0.1745 C.3     1  EMB        -0.0305
      9 C1         -3.5635   -0.1866    1.1846 C.3     1  EMB        -0.0613
     10 H          -1.2827    2.1250   -0.0377 H       1  EMB         0.0620
     11 H           1.1716    2.2188   -0.0290 H       1  EMB         0.0620
     12 H           3.3028    1.1393   -0.1869 H       1  EMB         0.0278
     13 H           3.2926   -0.4300   -0.9987 H       1  EMB         0.0278
     14 H           3.3531   -0.3437    0.7826 H       1  EMB         0.0278
     15 H           1.3333   -2.0885   -0.0716 H       1  EMB         0.0620
     16 H          -1.1240   -2.1816   -0.0811 H       1  EMB         0.0620
     17 H          -3.1842   -0.9482   -0.7919 H       1  EMB         0.0311
     18 H          -3.2577    0.7973   -0.7038 H       1  EMB         0.0311
     19 H          -3.2530   -1.0884    1.7216 H       1  EMB         0.0233
     20 H          -4.6512   -0.2259    1.0596 H       1  EMB         0.0233
     21 H          -3.3263    0.6802    1.8094 H       1  EMB         0.0233
@<TRIPOS>BOND
     1     1     2   ar
     2     2     3   ar
     3     3     4    1
     4     3     5   ar
     5     5     6   ar
     6     6     7   ar
     7     1     7   ar
     8     7     8    1
     9     8     9    1
    10     1    10    1
    11     2    11    1
    12     4    12    1
    13     4    13    1
    14     4    14    1
    15     5    15    1
    16     6    16    1
    17     8    17    1
    18     8    18    1
    19     9    19    1
    20     9    20    1
    21     9    21    1
