@<TRIPOS>MOLECULE
STY
   18    18     1     0     0
SMALL
gas


@<TRIPOS>ATOM
      1 C           24.7200    25.1600    24.9900 ca         1 STY      -0.048294
      2 C1          23.5500    24.3900    24.9700 ca         1 STY      -0.059056
      3 C2          23.6100    22.9900    24.9900 ca         1 STY      -0.061994
      4 C3          24.8600    22.3400    25.0300 ca         1 STY      -0.062249
      5 C4          26.0400    23.1100    25.0600 ca         1 STY      -0.061994
      6 C5          25.9700    24.5100    25.0400 ca         1 STY      -0.059056
      7 C6          24.5800    26.6800    24.9700 c3         1 STY      -0.030744
      8 C7          25.8900    27.4900    25.0000 c3         1 STY      -0.061294
      9 H           23.9600    26.9900    25.8200 hc         1 STY       0.031310
     10 H1          24.0200    26.9700    24.0700 hc         1 STY       0.031310
     11 H2          26.4600    27.2700    25.9100 hc         1 STY       0.023371
     12 H3          25.6800    28.5600    24.9700 hc         1 STY       0.023371
     13 H4          26.5200    27.2500    24.1300 hc         1 STY       0.023371
     14 H5          26.9000    25.0700    25.0600 ha         1 STY       0.062560
     15 H6          24.9100    21.2600    25.0500 ha         1 STY       0.062269
     16 H7          27.0000    22.6100    25.1000 ha         1 STY       0.062279
     17 H8          22.5800    24.8700    24.9300 ha         1 STY       0.062560
     18 H9          22.7000    22.4000    24.9700 ha         1 STY       0.062279
@<TRIPOS>BOND
     1    10     7 1   
     2    13     8 1   
     3    17     2 1   
     4     2     1 ar  
     5     2     3 ar  
     6     7     1 1   
     7     7     8 1   
     8     7     9 1   
     9    12     8 1   
    10    18     3 1   
    11     1     6 ar  
    12     3     4 ar  
    13     8    11 1   
    14     4    15 1   
    15     4     5 ar  
    16     6     5 ar  
    17     6    14 1   
    18     5    16 1   
@<TRIPOS>SUBSTRUCTURE
     1 STY         1 TEMP              0 ****  ****    0 ROOT
