@<TRIPOS>MOLECULE
*****
 96 98 0 0 0
SMALL
GASTEIGER
@<TRIPOS>ATOM
      1 C              -2.8      3.42      0.01 C.ar    1  mST       -0.0586
      2 C             -1.44      3.73      0.01 C.ar    1  mST       -0.0583
      3 C             -3.22      2.08      -0.0 C.ar    1  mST       -0.0504
      4 C             -2.26      1.06     -0.01 C.ar    1  mST       -0.0586
      5 C              -0.9      1.37      -0.0 C.ar    1  mST       -0.0583
      6 C             -0.47      2.71       0.0 C.ar    1  mST       -0.0476
      7 C1             0.99      3.13      0.01  C.3    1  mST       -0.0305
      8 C2              2.0      1.98       0.0  C.3    1  mST       -0.0613
      9 H              1.18      3.75      0.91    H    1  mST        0.0311
     10 H              1.18      3.75     -0.89    H    1  mST        0.0311
     11 H              1.88      1.35      0.91    H    1  mST        0.0233
     12 H              3.03      2.39      0.01    H    1  mST        0.0233
     13 C             -4.68      1.74      -0.0  C.3    1  mST       -0.0397
     14 H             -5.32      2.65       0.0    H    1  mST        0.0278
     15 H             -4.92      1.13       0.9    H    1  mST        0.0278
     16 H             -4.92      1.14     -0.91    H    1  mST        0.0278
     17 H             -3.53      4.23      0.01    H    1  mST        0.0620
     18 H             -1.14      4.77      0.01    H    1  mST        0.0620
     19 H             -0.19      0.55     -0.01    H    1  mST        0.0620
     20 H             -2.57      0.02     -0.01    H    1  mST        0.0620
     21 C             -0.95      0.89     -1.18  C.3    1 CRO0       -0.0525
     22 C1              0.5      0.48      -1.5  C.3    1 CRO0        0.0508
     23 H             -1.64      0.04     -1.35    H    1 CRO0        0.0237
     24 H             -1.26      1.74     -1.83    H    1 CRO0        0.0237
     25 H             -1.03      1.21     -0.12    H    1 CRO0        0.0237
     26 C              1.49       1.6     -1.24  C.2    1 CRO0        0.3097
     27 O              2.81      1.37     -1.46  O.3    1 CRO0       -0.4617
     28 C               3.8      2.31     -1.22  C.3    1 CRO0        0.1215
     29 C2              0.6      0.01     -2.95  C.3    1 CRO0       -0.0525
     30 C              5.16      1.76     -1.68  C.3    1 CRO0        0.1230
     31 H              3.83      2.54     -0.13    H    1 CRO0        0.0725
     32 H              3.57      3.24     -1.78    H    1 CRO0        0.0725
     33 C              6.25      2.81     -1.45  C.3    1 CRO0        0.1186
     34 O              7.45      2.36     -1.98  O.3    1 CRO0       -0.4893
     35 H              6.36      3.01     -0.36    H    1 CRO0        0.0724
     36 H              5.97      3.75     -1.97    H    1 CRO0        0.0724
     37 C              8.61      3.07     -2.01 C.ar    1 CRO0        0.1206
     38 C              8.77       4.3     -1.34 C.ar    1 CRO0       -0.0197
     39 C              9.96      5.01     -1.44 C.ar    1 CRO0       -0.0543
     40 C             11.04      4.53     -2.22 C.ar    1 CRO0       -0.0372
     41 C              9.67      2.58     -2.77 C.ar    1 CRO0       -0.0197
     42 C             12.36      5.33     -2.42  C.3    1 CRO0        0.0151
     43 C             12.45      5.64     -3.94  C.3    1 CRO0       -0.0517
     44 H             12.55      4.71     -4.54    H    1 CRO0        0.0241
     45 H             13.32      6.28     -4.19    H    1 CRO0        0.0241
     46 H             11.54      6.18     -4.28    H    1 CRO0        0.0241
     47 C             12.33      6.69     -1.67  C.3    1 CRO0       -0.0517
     48 H             11.47      7.31      -2.0    H    1 CRO0        0.0241
     49 H             13.24      7.29     -1.87    H    1 CRO0        0.0241
     50 H             12.26      6.53     -0.58    H    1 CRO0        0.0241
     51 C             13.62      4.57     -1.96 C.ar    1 CRO0       -0.0372
     52 C             13.57      3.34     -1.26 C.ar    1 CRO0       -0.0543
     53 C             14.74      2.69     -0.85 C.ar    1 CRO0       -0.0197
     54 C             14.89      5.12     -2.22 C.ar    1 CRO0       -0.0543
     55 C             16.06      4.47     -1.83 C.ar    1 CRO0       -0.0197
     56 C              16.0      3.24     -1.14 C.ar    1 CRO0        0.1206
     57 O             17.12      2.58     -0.73  O.3    1 CRO0       -0.4893
     58 C             18.41      2.96     -1.02  C.3    1 CRO0        0.1186
     59 C             19.42      2.01     -0.36  C.3    1 CRO0        0.1230
     60 H             18.59      3.99     -0.63    H    1 CRO0        0.0724
     61 H             18.56      2.96     -2.12    H    1 CRO0        0.0724
     62 C             20.85      2.45      -0.7  C.3    1 CRO0        0.1215
     63 O             21.77      1.65     -0.05  O.3    1 CRO0       -0.4617
     64 H              21.0      3.51     -0.39    H    1 CRO0        0.0725
     65 H              21.0      2.38      -1.8    H    1 CRO0        0.0725
     66 C             23.11      1.78     -0.19  C.2    1 CRO0        0.3097
     67 C3            24.02      0.92      0.66  C.3    1 CRO0        0.0508
     68 C4            23.74     -0.56      0.42  C.3    1 CRO0       -0.0525
     69 C             25.51      1.22       0.4  C.3    1 CRO0       -0.0525
     70 H             25.73      2.29      0.61    H    1 CRO0        0.0237
     71 H             25.78       1.0     -0.65    H    1 CRO0        0.0237
     72 H             26.15       0.6      1.07    H    1 CRO0        0.0237
     73 O               1.1      2.69     -0.84  O.2    1 CRO0       -0.2506
     74 O              5.48      0.59     -0.98  O.3    1 CRO0       -0.3850
     75 H              5.11      1.56     -2.78    H    1 CRO0        0.0662
     76 H              5.02     -0.16     -1.44    H    1 CRO0        0.2101
     77 O             19.19      0.71     -0.82  O.3    1 CRO0       -0.3850
     78 H             19.26      2.07      0.74    H    1 CRO0        0.0662
     79 H             19.57      0.09     -0.14    H    1 CRO0        0.2101
     80 O             23.58      2.59     -0.99  O.2    1 CRO0       -0.2506
     81 H              7.97      4.71     -0.74    H    1 CRO0        0.0654
     82 H             10.01      5.95      -0.9    H    1 CRO0        0.0622
     83 C             10.87      3.29     -2.88 C.ar    1 CRO0       -0.0543
     84 H             11.66      2.88     -3.49    H    1 CRO0        0.0622
     85 H              9.57      1.63     -3.29    H    1 CRO0        0.0654
     86 H              15.0      6.06     -2.75    H    1 CRO0        0.0622
     87 H             17.01      4.93     -2.06    H    1 CRO0        0.0654
     88 H             12.63      2.87      -1.0    H    1 CRO0        0.0622
     89 H             14.68      1.76     -0.32    H    1 CRO0        0.0654
     90 H              0.35      0.83     -3.65    H    1 CRO0        0.0237
     91 H             -0.09     -0.84     -3.13    H    1 CRO0        0.0237
     92 H              1.64     -0.34     -3.17    H    1 CRO0        0.0237
     93 H             23.81      1.15      1.73    H    1 CRO0        0.0408
     94 H             24.38     -1.19      1.07    H    1 CRO0        0.0237
     95 H             23.94     -0.83     -0.64    H    1 CRO0        0.0237
     96 H             22.68     -0.79      0.65    H    1 CRO0        0.0237
@<TRIPOS>BOND
     1     1     2   ar
     2     1     3   ar
     3     3     4   ar
     4     4     5   ar
     5     2     6   ar
     6     6     5   ar
     7     6     7    1
     8     7     8    1
     9     7     9    1
    10     7    10    1
    11     8    11    1
    12     8    12    1
    13     3    13    1
    14    13    14    1
    15    13    15    1
    16    13    16    1
    17     1    17    1
    18     2    18    1
    19     5    19    1
    20     4    20    1
    21    21    22    1
    22    21    23    1
    23    21    24    1
    24    21    25    1
    25    22    26    1
    26    26    27    1
    27    27    28    1
    28    22    29    1
    29    28    30    1
    30    28    31    1
    31    28    32    1
    32    30    33    1
    33    33    34    1
    34    33    35    1
    35    33    36    1
    36    34    37    1
    37    37    38   ar
    38    38    39   ar
    39    39    40   ar
    40    37    41   ar
    41    40    42    1
    42    42    43    1
    43    43    44    1
    44    43    45    1
    45    43    46    1
    46    42    47    1
    47    47    48    1
    48    47    49    1
    49    47    50    1
    50    42    51    1
    51    51    52   ar
    52    52    53   ar
    53    51    54   ar
    54    54    55   ar
    55    55    56   ar
    56    53    56   ar
    57    56    57    1
    58    57    58    1
    59    58    59    1
    60    58    60    1
    61    58    61    1
    62    59    62    1
    63    62    63    1
    64    62    64    1
    65    62    65    1
    66    63    66    1
    67    66    67    1
    68    67    68    1
    69    67    69    1
    70    69    70    1
    71    69    71    1
    72    69    72    1
    73    26    73    2
    74    30    74    1
    75    30    75    1
    76    74    76    1
    77    59    77    1
    78    59    78    1
    79    77    79    1
    80    66    80    2
    81    38    81    1
    82    39    82    1
    83    40    83   ar
    84    83    41   ar
    85    83    84    1
    86    41    85    1
    87    54    86    1
    88    55    87    1
    89    52    88    1
    90    53    89    1
    91    29    90    1
    92    29    91    1
    93    29    92    1
    94    67    93    1
    95    68    94    1
    96    68    95    1
    97    68    96    1
    98    22     8    1
