@<TRIPOS>MOLECULE
*****
 53 54 0 0 0
SMALL
GASTEIGER

@<TRIPOS>ATOM
      1 C          -2.7153    1.0343   -1.3016 C.ar    1  DGE     -0.0197
      2 C          -3.6217    0.6384   -0.3182 C.ar    1  DGE      0.1206
      3 C          -3.2471   -0.3672    0.5902 C.ar    1  DGE     -0.0197
      4 C          -1.9874   -0.9699    0.5021 C.ar    1  DGE     -0.0543
      5 C          -1.4592    0.4344   -1.3949 C.ar    1  DGE     -0.0543
      6 C          -1.0641   -0.5852   -0.4993 C.ar    1  DGE     -0.0372
      7 C           0.3321   -1.2373   -0.6665 C.3     1  DGE      0.0151
      8 C           1.4829   -0.2214   -0.4777 C.ar    1  DGE     -0.0372
      9 C           1.2702    1.0902    0.0098 C.ar    1  DGE     -0.0543
     10 C           2.3379    1.9693    0.2054 C.ar    1  DGE     -0.0197
     11 C           3.6481    1.5769   -0.0737 C.ar    1  DGE      0.1206
     12 C           3.8793    0.2810   -0.5660 C.ar    1  DGE     -0.0197
     13 C           2.8151   -0.6026   -0.7585 C.ar    1  DGE     -0.0543
     14 O           4.6500    2.4613    0.1658 O.3     1  DGE     -0.4894
     15 C           6.0002    2.2156    0.0059 C.3     1  DGE      0.1151
     16 C           6.8029    3.4244    0.4920 C.3     1  DGE      0.0864
     17 H           6.2238    2.0104   -1.0648 H       1  DGE      0.0722
     18 H           6.2854    1.3311    0.6178 H       1  DGE      0.0722
     19 C1          8.3054    3.1550    0.3879 C.3     1  DGE     -0.0357
     20 H           8.5796    2.2682    0.9990 H       1  DGE      0.0256
     21 H           8.8725    4.0302    0.7697 H       1  DGE      0.0256
     22 H           8.5967    2.9714   -0.6681 H       1  DGE      0.0256
     23 O           6.4643    4.5486   -0.2772 O.3     1  DGE     -0.3887
     24 H           6.5375    3.5975    1.5619 H       1  DGE      0.0624
     25 O          -4.8389    1.2396   -0.2917 O.3     1  DGE     -0.4894
     26 C          -5.8848    0.9217    0.5515 C.3     1  DGE      0.1151
     27 C          -7.0994    1.7908    0.2068 C.3     1  DGE      0.0864
     28 H          -5.5859    1.0891    1.6101 H       1  DGE      0.0722
     29 H          -6.1543   -0.1483    0.4090 H       1  DGE      0.0722
     30 O          -6.7993    3.1463    0.4176 O.3     1  DGE     -0.3887
     31 C2         -8.3037    1.4100    1.0657 C.3     1  DGE     -0.0357
     32 H          -7.3881    1.6196   -0.8576 H       1  DGE      0.0624
     33 H          -8.5730    0.3447    0.8995 H       1  DGE      0.0256
     34 H          -9.1765    2.0387    0.7883 H       1  DGE      0.0256
     35 H          -8.0796    1.5634    2.1428 H       1  DGE      0.0256
     36 H          -3.9239   -0.6967    1.3672 H       1  DGE      0.0654
     37 H          -2.9885    1.8085   -2.0076 H       1  DGE      0.0654
     38 H          -0.7912    0.7721   -2.1760 H       1  DGE      0.0622
     39 H          -1.7607   -1.7390    1.2250 H       1  DGE      0.0622
     40 H           0.2863    1.4505    0.2695 H       1  DGE      0.0622
     41 H           2.1448    2.9621    0.5929 H       1  DGE      0.0654
     42 H           4.8802   -0.0603   -0.7938 H       1  DGE      0.0654
     43 H           3.0466   -1.5925   -1.1255 H       1  DGE      0.0622
     44 H          -6.3453    3.4741   -0.4023 H       1  DGE      0.2099
     45 H           6.7129    5.3473    0.2581 H       1  DGE      0.2099
     46 C           0.3734   -1.8613   -2.0859 C.3     1  DGE     -0.0517
     47 H           0.2891   -1.0918   -2.8799 H       1  DGE      0.0241
     48 H          -0.4632   -2.5835   -2.2110 H       1  DGE      0.0241
     49 H           1.3128   -2.4211   -2.2695 H       1  DGE      0.0241
     50 C           0.5648   -2.3829    0.3508 C.3     1  DGE     -0.0517
     51 H           0.5578   -1.9891    1.3905 H       1  DGE      0.0241
     52 H           1.5458   -2.8781    0.1898 H       1  DGE      0.0241
     53 H          -0.2139   -3.1697    0.2530 H       1  DGE      0.0241
@<TRIPOS>BOND
     1     1     2   ar
     2     2     3   ar
     3     3     4   ar
     4     1     5   ar
     5     5     6   ar
     6     6     4   ar
     7     6     7    1
     8     7     8    1
     9     8     9   ar
    10     9    10   ar
    11    10    11   ar
    12    11    12   ar
    13    12    13   ar
    14     8    13   ar
    15    11    14    1
    16    14    15    1
    17    15    16    1
    18    15    17    1
    19    15    18    1
    20    16    19    1
    21    19    20    1
    22    19    21    1
    23    19    22    1
    24    16    23    1
    25    16    24    1
    26     2    25    1
    27    25    26    1
    28    26    27    1
    29    26    28    1
    30    26    29    1
    31    27    30    1
    32    27    31    1
    33    27    32    1
    34    31    33    1
    35    31    34    1
    36    31    35    1
    37     3    36    1
    38     1    37    1
    39     5    38    1
    40     4    39    1
    41     9    40    1
    42    10    41    1
    43    12    42    1
    44    13    43    1
    45    30    44    1
    46    23    45    1
    47     7    46    1
    48    46    47    1
    49    46    48    1
    50    46    49    1
    51     7    50    1
    52    50    51    1
    53    50    52    1
    54    50    53    1

