@<TRIPOS>MOLECULE
*****
 34 35 0 0 0
SMALL
GASTEIGER
@<TRIPOS>ATOM
      1 C             24.72     25.16     24.99 C.ar    1  STY       -0.0476
      2 C1            23.55     24.39     24.97 C.ar    1  STY       -0.0586
      3 C2            23.61     22.99     24.99 C.ar    1  STY       -0.0615
      4 C3            24.86     22.34     25.03 C.ar    1  STY       -0.0617
      5 C4            26.04     23.11     25.06 C.ar    1  STY       -0.0615
      6 C5            25.97     24.51     25.04 C.ar    1  STY       -0.0586
      7 C6            24.58     26.68     24.97  C.3    1  STY       -0.0305
      8 C7            25.89     27.49      25.0  C.3    1  STY       -0.0613
      9 H             23.96     26.99     25.82    H    1  STY        0.0311
     10 H1            24.02     26.97     24.07    H    1  STY        0.0311
     11 H3            25.68     28.56     24.97    H    1  STY        0.0233
     12 H4            26.52     27.25     24.13    H    1  STY        0.0233
     13 H5             26.9     25.07     25.06    H    1  STY        0.0620
     14 H6            24.91     21.26     25.05    H    1  STY        0.0618
     15 H7             27.0     22.61      25.1    H    1  STY        0.0618
     16 H8            22.58     24.87     24.93    H    1  STY        0.0620
     17 H9             22.7      22.4     24.97    H    1  STY        0.0618
     18 C             24.53     24.47     23.52 C.ar    1 CRO0       -0.0476
     19 C1            23.36      23.7      23.5 C.ar    1 CRO0       -0.0586
     20 C2            23.42      22.3     23.52 C.ar    1 CRO0       -0.0615
     21 C3            24.67     21.65     23.56 C.ar    1 CRO0       -0.0617
     22 C4            25.85     22.42     23.59 C.ar    1 CRO0       -0.0615
     23 C5            25.78     23.82     23.57 C.ar    1 CRO0       -0.0586
     24 C6            24.39     25.99      23.5  C.3    1 CRO0       -0.0305
     25 C7             25.7      26.8     23.53  C.3    1 CRO0       -0.0613
     26 H1            23.83     26.28      22.6    H    1 CRO0        0.0311
     27 H2            26.27     26.58     24.44    H    1 CRO0        0.0233
     28 H3            25.49     27.87      23.5    H    1 CRO0        0.0233
     29 H4            26.33     26.56     22.66    H    1 CRO0        0.0233
     30 H5            26.71     24.38     23.59    H    1 CRO0        0.0620
     31 H6            24.72     20.57     23.58    H    1 CRO0        0.0618
     32 H7            26.81     21.92     23.63    H    1 CRO0        0.0618
     33 H8            22.39     24.18     23.46    H    1 CRO0        0.0620
     34 H9            22.51     21.71      23.5    H    1 CRO0        0.0618
@<TRIPOS>BOND
     1    10     7    1
     2    12     8    1
     3    16     2    1
     4     2     1   ar
     5     2     3   ar
     6     7     1    1
     7     7     8    1
     8     7     9    1
     9    11     8    1
    10    17     3    1
    11     1     6   ar
    12     3     4   ar
    13     4    14    1
    14     4     5   ar
    15     6     5   ar
    16     6    13    1
    17     5    15    1
    18    26    24    1
    19    29    25    1
    20    33    19    1
    21    19    18   ar
    22    19    20   ar
    23    24    18    1
    24    24    25    1
    25    28    25    1
    26    34    20    1
    27    18    23   ar
    28    20    21   ar
    29    25    27    1
    30    21    31    1
    31    21    22   ar
    32    23    22   ar
    33    23    30    1
    34    22    32    1
    35    24     8    1
