@<TRIPOS>MOLECULE
*****
   50    52     1     0     0
SMALL
gas


@<TRIPOS>ATOM
      1 C            0.4870     0.6330     2.1160 ca         1 STY      -0.044292
      2 C1          -0.1800     0.4110     3.3370 ca         1 STY      -0.058740
      3 C2           0.4000    -0.3460     4.3590 ca         1 STY      -0.061983
      4 C3           1.6670    -0.8900     4.1880 ca         1 STY      -0.062248
      5 C4           2.3500    -0.6770     2.9950 ca         1 STY      -0.061983
      6 C5           1.7650     0.0760     1.9720 ca         1 STY      -0.058740
      7 C6          -0.2000     1.4780     1.0250 c3         1 STY      -0.009003
      8 C7           0.7380     2.1520    -0.0420 c3         1 STY      -0.039126
      9 H1          -0.4380     2.3760     1.6270 hc         1 STY       0.035864
     10 H3           0.4840     3.2240     0.0120 hc         1 STY       0.027912
     11 H4           1.7770     2.1330     0.3080 hc         1 STY       0.027912
     12 H5           2.3330     0.2010     1.0600 ha         1 STY       0.062571
     13 H6           2.1190    -1.4800     4.9790 ha         1 STY       0.062269
     14 H7           3.3410    -1.1010     2.8550 ha         1 STY       0.062279
     15 H8          -1.1700     0.8260     3.5090 ha         1 STY       0.062571
     16 H9          -0.1430    -0.5110     5.2850 ha         1 STY       0.062279
     17 C8          -1.9310    -0.4930     0.3750 ca         1 CRO      -0.044579
     18 C10         -3.2640    -0.9500     0.4170 ca         1 CRO      -0.058751
     19 C12         -3.5830    -2.2960     0.2180 ca         1 CRO      -0.061984
     20 C14         -2.5730    -3.2200    -0.0240 ca         1 CRO      -0.062248
     21 C16         -1.2510    -2.7930    -0.0640 ca         1 CRO      -0.061984
     22 C18         -0.9370    -1.4450     0.1360 ca         1 CRO      -0.058751
     23 C20         -1.6520     0.9850     0.6420 c3         1 CRO      -0.012128
     24 C22         -2.3530     1.8720    -0.4000 c3         1 CRO      -0.057826
     25 H10         -2.2270     1.1710     1.5640 hc         1 CRO       0.035567
     26 H2          -2.2020     1.5080    -1.4190 hc         1 CRO       0.023678
     27 H12         -2.0270     2.9140    -0.3310 hc         1 CRO       0.023678
     28 H14         -3.4380     1.8730    -0.2390 hc         1 CRO       0.023678
     29 H16          0.1100    -1.1680     0.1000 ha         1 CRO       0.062571
     30 H18         -2.8130    -4.2690    -0.1740 ha         1 CRO       0.062269
     31 H20         -0.4510    -3.5060    -0.2480 ha         1 CRO       0.062279
     32 H22         -4.0750    -0.2550     0.6230 ha         1 CRO       0.062571
     33 H24         -4.6180    -2.6210     0.2610 ha         1 CRO       0.062279
     34 C9           1.0870     0.4300    -1.9830 ca         1 CRO      -0.045165
     35 C11          0.1950    -0.3100    -2.7770 ca         1 CRO      -0.058773
     36 C13          0.5240    -1.5910    -3.2240 ca         1 CRO      -0.061984
     37 C15          1.7550    -2.1490    -2.8930 ca         1 CRO      -0.062248
     38 C17          2.6620    -1.4190    -2.1270 ca         1 CRO      -0.061984
     39 C19          2.3350    -0.1350    -1.6860 ca         1 CRO      -0.058773
     40 C21          0.7110     1.8310    -1.5550 c3         1 CRO      -0.018436
     41 C23          1.6320     2.8290    -2.2910 c3         1 CRO      -0.058394
     42 H11         -0.2870     2.0540    -1.9350 hc         1 CRO       0.034958
     43 H26          2.6730     2.7430    -1.9610 hc         1 CRO       0.023656
     44 H13          1.3100     3.8610    -2.1100 hc         1 CRO       0.023656
     45 H15          1.6100     2.6620    -3.3740 hc         1 CRO       0.023656
     46 H17          3.0720     0.4260    -1.1170 ha         1 CRO       0.062571
     47 H19          2.0090    -3.1480    -3.2360 ha         1 CRO       0.062269
     48 H21          3.6290    -1.8480    -1.8790 ha         1 CRO       0.062279
     49 H23         -0.7750     0.1020    -3.0460 ha         1 CRO       0.062571
     50 H25         -0.1880    -2.1530    -3.8230 ha         1 CRO       0.062279
@<TRIPOS>BOND
     1     9     7 1   
     2    11     8 1   
     3    15     2 1   
     4     2     1 ar  
     5     2     3 ar  
     6     7     1 1   
     7     7     8 1   
     8    10     8 1   
     9    16     3 1   
    10     1     6 ar  
    11     3     4 ar  
    12     4    13 1   
    13     4     5 ar  
    14     6     5 ar  
    15     6    12 1   
    16     5    14 1   
    17    25    23 1   
    18    28    24 1   
    19    32    18 1   
    20    18    17 ar  
    21    18    19 ar  
    22    23    17 1   
    23    23    24 1   
    24    27    24 1   
    25    33    19 1   
    26    17    22 ar  
    27    19    20 ar  
    28    24    26 1   
    29    20    30 1   
    30    20    21 ar  
    31    22    21 ar  
    32    22    29 1   
    33    21    31 1   
    34    42    40 1   
    35    45    41 1   
    36    49    35 1   
    37    35    34 ar  
    38    35    36 ar  
    39    40    34 1   
    40    40    41 1   
    41    44    41 1   
    42    50    36 1   
    43    34    39 ar  
    44    36    37 ar  
    45    41    43 1   
    46    37    47 1   
    47    37    38 ar  
    48    39    38 ar  
    49    39    46 1   
    50    38    48 1   
    51    23     7 1   
    52    40     8 1   
@<TRIPOS>SUBSTRUCTURE
     1 STY         1 TEMP              0 ****  ****    0 ROOT
