@<TRIPOS>MOLECULE
*****
 34 35 0 0 0
SMALL
GASTEIGER

@<TRIPOS>ATOM
      1 C          -0.3334    0.3865    1.8389 C.ar    1  STY1       -0.0476
      2 C1         -1.4650   -0.4374    1.7725 C.ar    1  STY1       -0.0586
      3 C2         -1.4096   -1.7580    2.2217 C.ar    1  STY1       -0.0615
      4 C3         -0.2256   -2.2669    2.7503 C.ar    1  STY1       -0.0617
      5 C4          0.9027   -1.4542    2.8347 C.ar    1  STY1       -0.0615
      6 C5          0.8482   -0.1333    2.3861 C.ar    1  STY1       -0.0586
      7 C6         -0.3973    1.8141    1.3557 C.3     1  STY1       -0.0305
      8 C7          0.5463    2.1653    0.1934 C.3     1  STY1       -0.0613
      9 H          -0.1442    2.4520    2.2133 H       1  STY1        0.0311
     10 H1         -1.4267    2.0815    1.0861 H       1  STY1        0.0311
     11 H3          0.6491    3.2594    0.1975 H       1  STY1        0.0233
     12 H4          1.5531    1.7702    0.3713 H       1  STY1        0.0233
     13 H5          1.7370    0.4878    2.4629 H       1  STY1        0.0620
     14 H6         -0.1822   -3.2962    3.0947 H       1  STY1        0.0618
     15 H7          1.8266   -1.8490    3.2478 H       1  STY1        0.0618
     16 H8         -2.3956   -0.0610    1.3552 H       1  STY1        0.0620
     17 H9         -2.2900   -2.3907    2.1521 H       1  STY1        0.0618
     18 C          -0.0146    0.2593   -1.4514 C.ar    1  CRO01      -0.0476
     19 C1         -1.2172   -0.3478   -1.8455 C.ar    1  CRO01      -0.0586
     20 C2         -1.2806   -1.7237   -2.0746 C.ar    1  CRO01      -0.0615
     21 C3         -0.1419   -2.5103   -1.9197 C.ar    1  CRO01      -0.0617
     22 C4          1.0615   -1.9210   -1.5407 C.ar    1  CRO01      -0.0615
     23 C5          1.1264   -0.5452   -1.3119 C.ar    1  CRO01      -0.0586
     24 C6          0.0282    1.7566   -1.2055 C.3     1  CRO01      -0.0305
     25 C7          0.8740    2.4326   -2.2945 C.3     1  CRO01      -0.0613
     26 H1         -0.9900    2.1569   -1.3054 H       1  CRO01       0.0311
     27 H2          1.9271    2.1357   -2.2346 H       1  CRO01       0.0233
     28 H3          0.8293    3.5228   -2.1978 H       1  CRO01       0.0233
     29 H4          0.5096    2.1725   -3.2947 H       1  CRO01       0.0233
     30 H5          2.0762   -0.1094   -1.0129 H       1  CRO01       0.0620
     31 H6         -0.1923   -3.5817   -2.0911 H       1  CRO01       0.0618
     32 H7          1.9506   -2.5327   -1.4156 H       1  CRO01       0.0618
     33 H8         -2.1190    0.2470   -1.9689 H       1  CRO01       0.0620
     34 H9         -2.2207   -2.1817   -2.3692 H       1  CRO01       0.0618
@<TRIPOS>BOND
     1    10     7    1
     2    12     8    1
     3    16     2    1
     4     2     1   ar
     5     2     3   ar
     6     7     1    1
     7     7     8    1
     8     7     9    1
     9    11     8    1
    10    17     3    1
    11     1     6   ar
    12     3     4   ar
    13     4    14    1
    14     4     5   ar
    15     6     5   ar
    16     6    13    1
    17     5    15    1
    18    26    24    1
    19    29    25    1
    20    33    19    1
    21    19    18   ar
    22    19    20   ar
    23    24    18    1
    24    24    25    1
    25    28    25    1
    26    34    20    1
    27    18    23   ar
    28    20    21   ar
    29    25    27    1
    30    21    31    1
    31    21    22   ar
    32    23    22   ar
    33    23    30    1
    34    22    32    1
    35    24     8    1
