@<TRIPOS>MOLECULE
*****
 34 35 0 0 0
SMALL
GASTEIGER

@<TRIPOS>ATOM
      1 C           0.4361    0.4796    1.3130 C.ar    1  STY1       -0.0476
      2 C1         -0.3204   -0.4773    2.0112 C.ar    1  STY1       -0.0586
      3 C2          0.2984   -1.4545    2.7920 C.ar    1  STY1       -0.0615
      4 C3          1.6866   -1.4929    2.8851 C.ar    1  STY1       -0.0617
      5 C4          2.4524   -0.5533    2.1999 C.ar    1  STY1       -0.0615
      6 C5          1.8330    0.4283    1.4213 C.ar    1  STY1       -0.0586
      7 C6         -0.2857    1.5163    0.4596 C.3     1  STY1       -0.0305
      8 C7          0.1767    2.9428    0.7945 C.3     1  STY1       -0.0613
      9 H1         -1.3424    1.4897    0.7678 H       1  STY1        0.0311
     10 H2          0.0359    3.1536    1.8609 H       1  STY1        0.0233
     11 H3         -0.4059    3.6791    0.2305 H       1  STY1        0.0233
     12 H4          1.2345    3.1082    0.5684 H       1  STY1        0.0233
     13 H5          2.4587    1.1458    0.8985 H       1  STY1        0.0620
     14 H6          2.1696   -2.2562    3.4886 H       1  STY1        0.0618
     15 H7          3.5369   -0.5847    2.2691 H       1  STY1        0.0618
     16 H8         -1.4067   -0.4765    1.9400 H       1  STY1        0.0620
     17 H9         -0.3049   -2.1874    3.3202 H       1  STY1        0.0618
     18 C          -0.8348   -0.1529   -1.4093 C.ar    1  CRO01      -0.0476
     19 C1         -2.2253   -0.3386   -1.4834 C.ar    1  CRO01      -0.0586
     20 C2         -2.7659   -1.5982   -1.7518 C.ar    1  CRO01      -0.0615
     21 C3         -1.9261   -2.6912   -1.9490 C.ar    1  CRO01      -0.0617
     22 C4         -0.5460   -2.5262   -1.8727 C.ar    1  CRO01      -0.0615
     23 C5         -0.0045   -1.2680   -1.6008 C.ar    1  CRO01      -0.0586
     24 C6         -0.2797    1.2305   -1.0782 C.3     1  CRO01      -0.0305
     25 C7          1.0489    1.5342   -1.7873 C.3     1  CRO01      -0.0613
     26 H1         -0.9868    1.9486   -1.5225 H       1  CRO01       0.0311
     27 H2          1.8815    0.9417   -1.3997 H       1  CRO01       0.0233
     28 H3          1.3162    2.5911   -1.6888 H       1  CRO01       0.0233
     29 H4          0.9691    1.3254   -2.8608 H       1  CRO01       0.0233
     30 H5          1.0758   -1.1798   -1.5199 H       1  CRO01       0.0620
     31 H6         -2.3453   -3.6721   -2.1547 H       1  CRO01       0.0618
     32 H7          0.1134   -3.3783   -2.0142 H       1  CRO01       0.0618
     33 H8         -2.8997    0.4998   -1.3250 H       1  CRO01       0.0620
     34 H9         -3.8437   -1.7266   -1.8026 H       1  CRO01       0.0618
@<TRIPOS>BOND
     1     9     7    1
     2    12     8    1
     3    16     2    1
     4     2     1   ar
     5     2     3   ar
     6     7     1    1
     7     7     8    1
     8    11     8    1
     9    17     3    1
    10     1     6   ar
    11     3     4   ar
    12     8    10    1
    13     4    14    1
    14     4     5   ar
    15     6     5   ar
    16     6    13    1
    17     5    15    1
    18    26    24    1
    19    29    25    1
    20    33    19    1
    21    19    18   ar
    22    19    20   ar
    23    24    18    1
    24    24    25    1
    25    28    25    1
    26    34    20    1
    27    18    23   ar
    28    20    21   ar
    29    25    27    1
    30    21    31    1
    31    21    22   ar
    32    23    22   ar
    33    23    30    1
    34    22    32    1
    35    24     7    1
