@<TRIPOS>MOLECULE
*****
   34    35     1     0     0
SMALL
gas


@<TRIPOS>ATOM
      1 C            0.4360     0.4800     1.3130 ca         1 STY      -0.044589
      2 C1          -0.3200    -0.4770     2.0110 ca         1 STY      -0.058751
      3 C2           0.2980    -1.4540     2.7920 ca         1 STY      -0.061984
      4 C3           1.6870    -1.4930     2.8850 ca         1 STY      -0.062248
      5 C4           2.4520    -0.5530     2.2000 ca         1 STY      -0.061984
      6 C5           1.8330     0.4280     1.4210 ca         1 STY      -0.058751
      7 C6          -0.2860     1.5160     0.4600 c3         1 STY      -0.012415
      8 C7           0.1770     2.9430     0.7940 c3         1 STY      -0.057836
      9 H1          -1.3420     1.4900     0.7680 hc         1 STY       0.035556
     10 H2           0.0360     3.1540     1.8610 hc         1 STY       0.023678
     11 H3          -0.4060     3.6790     0.2310 hc         1 STY       0.023678
     12 H4           1.2340     3.1080     0.5680 hc         1 STY       0.023678
     13 H5           2.4590     1.1460     0.8980 ha         1 STY       0.062571
     14 H6           2.1700    -2.2560     3.4890 ha         1 STY       0.062269
     15 H7           3.5370    -0.5850     2.2690 ha         1 STY       0.062279
     16 H8          -1.4070    -0.4760     1.9400 ha         1 STY       0.062571
     17 H9          -0.3050    -2.1870     3.3200 ha         1 STY       0.062279
     18 C8          -0.8350    -0.1530    -1.4090 ca         1 CRO      -0.044589
     19 C9          -2.2250    -0.3390    -1.4830 ca         1 CRO      -0.058751
     20 C10         -2.7660    -1.5980    -1.7520 ca         1 CRO      -0.061984
     21 C11         -1.9260    -2.6910    -1.9490 ca         1 CRO      -0.062248
     22 C12         -0.5460    -2.5260    -1.8730 ca         1 CRO      -0.061984
     23 C13         -0.0040    -1.2680    -1.6010 ca         1 CRO      -0.058751
     24 C14         -0.2800     1.2300    -1.0780 c3         1 CRO      -0.012415
     25 C15          1.0490     1.5340    -1.7870 c3         1 CRO      -0.057836
     26 H10         -0.9870     1.9490    -1.5220 hc         1 CRO       0.035556
     27 H11          1.8810     0.9420    -1.4000 hc         1 CRO       0.023678
     28 H12          1.3160     2.5910    -1.6890 hc         1 CRO       0.023678
     29 H13          0.9690     1.3250    -2.8610 hc         1 CRO       0.023678
     30 H14          1.0760    -1.1800    -1.5200 ha         1 CRO       0.062571
     31 H15         -2.3450    -3.6720    -2.1550 ha         1 CRO       0.062269
     32 H16          0.1130    -3.3780    -2.0140 ha         1 CRO       0.062279
     33 H17         -2.9000     0.5000    -1.3250 ha         1 CRO       0.062571
     34 H18         -3.8440    -1.7270    -1.8030 ha         1 CRO       0.062279
@<TRIPOS>BOND
     1     9     7 1   
     2    12     8 1   
     3    16     2 1   
     4     2     1 ar  
     5     2     3 ar  
     6     7     1 1   
     7     7     8 1   
     8    11     8 1   
     9    17     3 1   
    10     1     6 ar  
    11     3     4 ar  
    12     8    10 1   
    13     4    14 1   
    14     4     5 ar  
    15     6     5 ar  
    16     6    13 1   
    17     5    15 1   
    18    26    24 1   
    19    29    25 1   
    20    33    19 1   
    21    19    18 ar  
    22    19    20 ar  
    23    24    18 1   
    24    24    25 1   
    25    28    25 1   
    26    34    20 1   
    27    18    23 ar  
    28    20    21 ar  
    29    25    27 1   
    30    21    31 1   
    31    21    22 ar  
    32    23    22 ar  
    33    23    30 1   
    34    22    32 1   
    35    24     7 1   
@<TRIPOS>SUBSTRUCTURE
     1 STY         1 TEMP              0 ****  ****    0 ROOT
