@<TRIPOS>MOLECULE
*****
 50 52 0 0 0
SMALL
GASTEIGER
@<TRIPOS>ATOM
      1 C             24.72     25.16     24.99 C.ar    1  STY       -0.0476
      2 C1            23.55     24.39     24.97 C.ar    1  STY       -0.0586
      3 C2            23.61     22.99     24.99 C.ar    1  STY       -0.0615
      4 C3            24.86     22.34     25.03 C.ar    1  STY       -0.0617
      5 C4            26.04     23.11     25.06 C.ar    1  STY       -0.0615
      6 C5            25.97     24.51     25.04 C.ar    1  STY       -0.0586
      7 C6            24.58     26.68     24.97  C.3    1  STY       -0.0305
      8 C7            25.89     27.49      25.0  C.3    1  STY       -0.0613
      9 H1            24.02     26.97     24.07    H    1  STY        0.0311
     10 H3            25.68     28.56     24.97    H    1  STY        0.0233
     11 H4            26.52     27.25     24.13    H    1  STY        0.0233
     12 H5             26.9     25.07     25.06    H    1  STY        0.0620
     13 H6            24.91     21.26     25.05    H    1  STY        0.0618
     14 H7             27.0     22.61      25.1    H    1  STY        0.0618
     15 H8            22.58     24.87     24.93    H    1  STY        0.0620
     16 H9             22.7      22.4     24.97    H    1  STY        0.0618
     17 C             23.22     23.66     23.49 C.ar    1 CRO0       -0.0476
     18 C1            22.05     22.89     23.47 C.ar    1 CRO0       -0.0586
     19 C2            22.11     21.49     23.49 C.ar    1 CRO0       -0.0615
     20 C3            23.36     20.84     23.53 C.ar    1 CRO0       -0.0617
     21 C4            24.54     21.61     23.56 C.ar    1 CRO0       -0.0615
     22 C5            24.47     23.01     23.54 C.ar    1 CRO0       -0.0586
     23 C6            23.08     25.18     23.47  C.3    1 CRO0       -0.0305
     24 C7            24.39     25.99      23.5  C.3    1 CRO0       -0.0613
     25 H1            22.52     25.47     22.57    H    1 CRO0        0.0311
     26 H2            24.96     25.77     24.41    H    1 CRO0        0.0233
     27 H3            24.18     27.06     23.47    H    1 CRO0        0.0233
     28 H4            25.02     25.75     22.63    H    1 CRO0        0.0233
     29 H5             25.4     23.57     23.56    H    1 CRO0        0.0620
     30 H6            23.41     19.76     23.55    H    1 CRO0        0.0618
     31 H7             25.5     21.11      23.6    H    1 CRO0        0.0618
     32 H8            21.08     23.37     23.43    H    1 CRO0        0.0620
     33 H9             21.2      20.9     23.47    H    1 CRO0        0.0618
     34 C             24.03     23.97     23.02 C.ar    1 CRO1       -0.0476
     35 C1            22.86      23.2      23.0 C.ar    1 CRO1       -0.0586
     36 C2            22.92      21.8     23.02 C.ar    1 CRO1       -0.0615
     37 C3            24.17     21.15     23.06 C.ar    1 CRO1       -0.0617
     38 C4            25.35     21.92     23.09 C.ar    1 CRO1       -0.0615
     39 C5            25.28     23.32     23.07 C.ar    1 CRO1       -0.0586
     40 C6            23.89     25.49      23.0  C.3    1 CRO1       -0.0305
     41 C7             25.2      26.3     23.03  C.3    1 CRO1       -0.0613
     42 H1            23.33     25.78      22.1    H    1 CRO1        0.0311
     43 H2            25.77     26.08     23.94    H    1 CRO1        0.0233
     44 H3            24.99     27.37      23.0    H    1 CRO1        0.0233
     45 H4            25.83     26.06     22.16    H    1 CRO1        0.0233
     46 H5            26.21     23.88     23.09    H    1 CRO1        0.0620
     47 H6            24.22     20.07     23.08    H    1 CRO1        0.0618
     48 H7            26.31     21.42     23.13    H    1 CRO1        0.0618
     49 H8            21.89     23.68     22.96    H    1 CRO1        0.0620
     50 H9            22.01     21.21      23.0    H    1 CRO1        0.0618
@<TRIPOS>BOND
     1     9     7    1
     2    11     8    1
     3    15     2    1
     4     2     1   ar
     5     2     3   ar
     6     7     1    1
     7     7     8    1
     8    10     8    1
     9    16     3    1
    10     1     6   ar
    11     3     4   ar
    12     4    13    1
    13     4     5   ar
    14     6     5   ar
    15     6    12    1
    16     5    14    1
    17    25    23    1
    18    28    24    1
    19    32    18    1
    20    18    17   ar
    21    18    19   ar
    22    23    17    1
    23    23    24    1
    24    27    24    1
    25    33    19    1
    26    17    22   ar
    27    19    20   ar
    28    24    26    1
    29    20    30    1
    30    20    21   ar
    31    22    21   ar
    32    22    29    1
    33    21    31    1
    34    42    40    1
    35    45    41    1
    36    49    35    1
    37    35    34   ar
    38    35    36   ar
    39    40    34    1
    40    40    41    1
    41    44    41    1
    42    50    36    1
    43    34    39   ar
    44    36    37   ar
    45    41    43    1
    46    37    47    1
    47    37    38   ar
    48    39    38   ar
    49    39    46    1
    50    38    48    1
    51    23     7    1
    52    40     8    1
