@<TRIPOS>MOLECULE
*****
   34    35     1     0     0
SMALL
gas


@<TRIPOS>ATOM
      1 C           -0.3330     0.3870     1.8390 ca         1 STY      -0.047998
      2 C1          -1.4650    -0.4370     1.7720 ca         1 STY      -0.059045
      3 C2          -1.4100    -1.7580     2.2220 ca         1 STY      -0.061994
      4 C3          -0.2260    -2.2670     2.7500 ca         1 STY      -0.062249
      5 C4           0.9030    -1.4540     2.8350 ca         1 STY      -0.061994
      6 C5           0.8480    -0.1330     2.3860 ca         1 STY      -0.059045
      7 C6          -0.3970     1.8140     1.3560 c3         1 STY      -0.027315
      8 C7           0.5460     2.1650     0.1930 c3         1 STY      -0.042567
      9 H           -0.1440     2.4520     2.2130 hc         1 STY       0.031616
     10 H1          -1.4270     2.0820     1.0860 hc         1 STY       0.031616
     11 H3           0.6490     3.2590     0.1980 hc         1 STY       0.027604
     12 H4           1.5530     1.7700     0.3710 hc         1 STY       0.027604
     13 H5           1.7370     0.4880     2.4630 ha         1 STY       0.062560
     14 H6          -0.1820    -3.2960     3.0950 ha         1 STY       0.062269
     15 H7           1.8270    -1.8490     3.2480 ha         1 STY       0.062279
     16 H8          -2.3960    -0.0610     1.3550 ha         1 STY       0.062560
     17 H9          -2.2900    -2.3910     2.1520 ha         1 STY       0.062279
     18 C8          -0.0150     0.2590    -1.4510 ca         1 CRO      -0.045176
     19 C9          -1.2170    -0.3480    -1.8450 ca         1 CRO      -0.058773
     20 C10         -1.2810    -1.7240    -2.0750 ca         1 CRO      -0.061984
     21 C11         -0.1420    -2.5100    -1.9200 ca         1 CRO      -0.062248
     22 C12          1.0620    -1.9210    -1.5410 ca         1 CRO      -0.061984
     23 C13          1.1260    -0.5450    -1.3120 ca         1 CRO      -0.058773
     24 C14          0.0280     1.7570    -1.2060 c3         1 CRO      -0.018723
     25 C15          0.8740     2.4330    -2.2950 c3         1 CRO      -0.058405
     26 H10         -0.9900     2.1570    -1.3050 hc         1 CRO       0.034947
     27 H2           1.9270     2.1360    -2.2350 hc         1 CRO       0.023656
     28 H11          0.8290     3.5230    -2.1980 hc         1 CRO       0.023656
     29 H12          0.5100     2.1720    -3.2950 hc         1 CRO       0.023656
     30 H13          2.0760    -0.1090    -1.0130 ha         1 CRO       0.062571
     31 H14         -0.1920    -3.5820    -2.0910 ha         1 CRO       0.062269
     32 H15          1.9510    -2.5330    -1.4160 ha         1 CRO       0.062279
     33 H16         -2.1190     0.2470    -1.9690 ha         1 CRO       0.062571
     34 H17         -2.2210    -2.1820    -2.3690 ha         1 CRO       0.062279
@<TRIPOS>BOND
     1    10     7 1   
     2    12     8 1   
     3    16     2 1   
     4     2     1 ar  
     5     2     3 ar  
     6     7     1 1   
     7     7     8 1   
     8     7     9 1   
     9    11     8 1   
    10    17     3 1   
    11     1     6 ar  
    12     3     4 ar  
    13     4    14 1   
    14     4     5 ar  
    15     6     5 ar  
    16     6    13 1   
    17     5    15 1   
    18    26    24 1   
    19    29    25 1   
    20    33    19 1   
    21    19    18 ar  
    22    19    20 ar  
    23    24    18 1   
    24    24    25 1   
    25    28    25 1   
    26    34    20 1   
    27    18    23 ar  
    28    20    21 ar  
    29    25    27 1   
    30    21    31 1   
    31    21    22 ar  
    32    23    22 ar  
    33    23    30 1   
    34    22    32 1   
    35    24     8 1   
@<TRIPOS>SUBSTRUCTURE
     1 STY         1 TEMP              0 ****  ****    0 ROOT
