@<TRIPOS>MOLECULE
*****
 50 52 0 0 0
SMALL
GASTEIGER

@<TRIPOS>ATOM
      1 C           0.4869    0.6335    2.1158 C.ar    1  STY1       -0.0476
      2 C1         -0.1798    0.4114    3.3372 C.ar    1  STY1       -0.0586
      3 C2          0.3996   -0.3461    4.3585 C.ar    1  STY1       -0.0615
      4 C3          1.6668   -0.8903    4.1876 C.ar    1  STY1       -0.0617
      5 C4          2.3499   -0.6767    2.9955 C.ar    1  STY1       -0.0615
      6 C5          1.7647    0.0763    1.9721 C.ar    1  STY1       -0.0586
      7 C6         -0.2000    1.4777    1.0246 C.3     1  STY1       -0.0305
      8 C7          0.7375    2.1522   -0.0415 C.3     1  STY1       -0.0613
      9 H1         -0.4379    2.3763    1.6265 H       1  STY1        0.0311
     10 H3          0.4844    3.2244    0.0118 H       1  STY1        0.0233
     11 H4          1.7767    2.1333    0.3078 H       1  STY1        0.0233
     12 H5          2.3329    0.2014    1.0597 H       1  STY1        0.0620
     13 H6          2.1195   -1.4805    4.9791 H       1  STY1        0.0618
     14 H7          3.3408   -1.1005    2.8551 H       1  STY1        0.0618
     15 H8         -1.1702    0.8263    3.5093 H       1  STY1        0.0620
     16 H9         -0.1435   -0.5111    5.2851 H       1  STY1        0.0618
     17 C          -1.9314   -0.4931    0.3748 C.ar    1  CRO01      -0.0476
     18 C1         -3.2641   -0.9502    0.4169 C.ar    1  CRO01      -0.0586
     19 C2         -3.5827   -2.2964    0.2177 C.ar    1  CRO01      -0.0615
     20 C3         -2.5729   -3.2201   -0.0242 C.ar    1  CRO01      -0.0617
     21 C4         -1.2506   -2.7934   -0.0640 C.ar    1  CRO01      -0.0615
     22 C5         -0.9367   -1.4447    0.1359 C.ar    1  CRO01      -0.0586
     23 C6         -1.6520    0.9854    0.6417 C.3     1  CRO01      -0.0305
     24 C7         -2.3529    1.8719   -0.3998 C.3     1  CRO01      -0.0613
     25 H1         -2.2268    1.1715    1.5640 H       1  CRO01       0.0311
     26 H2         -2.2018    1.5083   -1.4195 H       1  CRO01       0.0233
     27 H3         -2.0273    2.9143   -0.3307 H       1  CRO01       0.0233
     28 H4         -3.4377    1.8729   -0.2390 H       1  CRO01       0.0233
     29 H5          0.1103   -1.1676    0.1000 H       1  CRO01       0.0620
     30 H6         -2.8126   -4.2685   -0.1744 H       1  CRO01       0.0618
     31 H7         -0.4509   -3.5061   -0.2481 H       1  CRO01       0.0618
     32 H8         -4.0750   -0.2546    0.6230 H       1  CRO01       0.0620
     33 H9         -4.6184   -2.6214    0.2605 H       1  CRO01       0.0618
     34 C           1.0874    0.4298   -1.9834 C.ar    1  CRO11      -0.0476
     35 C1          0.1951   -0.3101   -2.7772 C.ar    1  CRO11      -0.0586
     36 C2          0.5240   -1.5911   -3.2241 C.ar    1  CRO11      -0.0615
     37 C3          1.7550   -2.1486   -2.8926 C.ar    1  CRO11      -0.0617
     38 C4          2.6618   -1.4193   -2.1272 C.ar    1  CRO11      -0.0615
     39 C5          2.3350   -0.1346   -1.6856 C.ar    1  CRO11      -0.0586
     40 C6          0.7112    1.8311   -1.5552 C.3     1  CRO11      -0.0305
     41 C7          1.6319    2.8291   -2.2914 C.3     1  CRO11      -0.0613
     42 H1         -0.2874    2.0538   -1.9347 H       1  CRO11       0.0311
     43 H2          2.6734    2.7429   -1.9614 H       1  CRO11       0.0233
     44 H3          1.3105    3.8606   -2.1096 H       1  CRO11       0.0233
     45 H4          1.6099    2.6623   -3.3745 H       1  CRO11       0.0233
     46 H5          3.0723    0.4258   -1.1168 H       1  CRO11       0.0620
     47 H6          2.0088   -3.1476   -3.2359 H       1  CRO11       0.0618
     48 H7          3.6290   -1.8483   -1.8795 H       1  CRO11       0.0618
     49 H8         -0.7754    0.1015   -3.0465 H       1  CRO11       0.0620
     50 H9         -0.1875   -2.1531   -3.8233 H       1  CRO11       0.0618
@<TRIPOS>BOND
     1     9     7    1
     2    11     8    1
     3    15     2    1
     4     2     1   ar
     5     2     3   ar
     6     7     1    1
     7     7     8    1
     8    10     8    1
     9    16     3    1
    10     1     6   ar
    11     3     4   ar
    12     4    13    1
    13     4     5   ar
    14     6     5   ar
    15     6    12    1
    16     5    14    1
    17    25    23    1
    18    28    24    1
    19    32    18    1
    20    18    17   ar
    21    18    19   ar
    22    23    17    1
    23    23    24    1
    24    27    24    1
    25    33    19    1
    26    17    22   ar
    27    19    20   ar
    28    24    26    1
    29    20    30    1
    30    20    21   ar
    31    22    21   ar
    32    22    29    1
    33    21    31    1
    34    42    40    1
    35    45    41    1
    36    49    35    1
    37    35    34   ar
    38    35    36   ar
    39    40    34    1
    40    40    41    1
    41    44    41    1
    42    50    36    1
    43    34    39   ar
    44    36    37   ar
    45    41    43    1
    46    37    47    1
    47    37    38   ar
    48    39    38   ar
    49    39    46    1
    50    38    48    1
    51    23     7    1
    52    40     8    1
