@<TRIPOS>MOLECULE
*****
 93 93 0 0 0
SMALL
GASTEIGER

@<TRIPOS>ATOM
      1 C          24.9729   24.0831   28.4011 C.3     1  VEA11       0.0151
      2 C1         25.2193   25.3689   29.2312 C.3     1  VEA11      -0.0517
      3 H          26.1493   25.2681   29.8322 H       1  VEA11       0.0241
      4 H1         24.3833   25.5560   29.9395 H       1  VEA11       0.0241
      5 H2         25.3378   26.2612   28.5804 H       1  VEA11       0.0241
      6 C2         24.7851   22.9303   29.4193 C.3     1  VEA11      -0.0517
      7 H3         25.6586   22.8482   30.1014 H       1  VEA11       0.0241
      8 H4         24.6441   21.9537   28.9098 H       1  VEA11       0.0241
      9 H5         23.8870   23.1146   30.0485 H       1  VEA11       0.0241
     10 C3         26.1951   23.8874   27.4834 C.ar    1  VEA11      -0.0372
     11 C4         26.4266   24.8112   26.4429 C.ar    1  VEA11      -0.0543
     12 C5         27.5195   24.6710   25.5854 C.ar    1  VEA11      -0.0197
     13 C6         28.4257   23.6213   25.7519 C.ar    1  VEA11       0.1206
     14 C7         28.2142   22.6933   26.7846 C.ar    1  VEA11      -0.0197
     15 C8         27.1099   22.8190   27.6335 C.ar    1  VEA11      -0.0543
     16 C9         23.6974   24.1592   27.5359 C.ar    1  VEA11      -0.0372
     17 C10        22.8308   25.2751   27.5541 C.ar    1  VEA11      -0.0543
     18 C11        21.6821   25.3085   26.7627 C.ar    1  VEA11      -0.0197
     19 C12        21.3617   24.2317   25.9161 C.ar    1  VEA11       0.1206
     20 C13        22.2150   23.1236   25.8871 C.ar    1  VEA11      -0.0197
     21 C14        23.3646   23.0841   26.6845 C.ar    1  VEA11      -0.0543
     22 H6         23.0173   26.1352   28.1790 H       1  VEA11       0.0622
     23 H7         21.0527   26.1842   26.8257 H       1  VEA11       0.0654
     24 H8         21.9855   22.2838   25.2430 H       1  VEA11       0.0654
     25 H9         24.0007   22.2096   26.6324 H       1  VEA11       0.0622
     26 H10        25.7507   25.6425   26.2862 H       1  VEA11       0.0622
     27 H11        27.6686   25.3912   24.7905 H       1  VEA11       0.0654
     28 H12        28.8888   21.8606   26.9315 H       1  VEA11       0.0654
     29 H13        26.9947   22.0734   28.4058 H       1  VEA11       0.0622
     30 O          29.4695   23.5320   24.8903 O.3     1  VEA11      -0.4893
     31 O1         20.2493   24.2171   25.1284 O.3     1  VEA11      -0.4898
     32 C15        30.6919   22.9218   25.1147 C.3     1  VEA11       0.1186
     33 C16        31.8049   23.8333   24.5833 C.3     1  VEA11       0.1230
     34 H14        30.7211   21.9661   24.5491 H       1  VEA11       0.0724
     35 H15        30.8614   22.7089   26.1929 H       1  VEA11       0.0724
     36 C17        31.8214   25.1900   25.3008 C.3     1  VEA11       0.1215
     37 O2         33.0445   23.1921   24.7375 O.3     1  VEA11      -0.3850
     38 H16        31.5888   23.9934   23.4999 H       1  VEA11       0.0662
     39 H17        33.6602   23.5858   24.0654 H       1  VEA11       0.2101
     40 O3         32.6877   26.0436   24.6490 O.3     1  VEA11      -0.4615
     41 H18        32.1142   25.0634   26.3668 H       1  VEA11       0.0725
     42 H19        30.8054   25.6406   25.2585 H       1  VEA11       0.0725
     43 C18        32.8779   27.3409   25.0021 C.2     1  VEA11       0.3135
     44 C19        33.5768   28.2744   24.0178 C.3     1  VEA11       0.0695
     45 O4         32.4779   27.7426   26.0852 O.2     1  VEA11      -0.2502
     46 C20        35.0269   27.7649   23.8628 C.3     1  VEA11      -0.0491
     47 H20        35.5640   27.8034   24.8351 H       1  VEA11       0.0240
     48 H21        35.5889   28.3856   23.1316 H       1  VEA11       0.0240
     49 H22        35.0474   26.7134   23.5014 H       1  VEA11       0.0240
     50 C21        32.8900   28.1701   22.6228 C.3     1  VEA11      -0.0299
     51 H24        36.2089   27.4421   20.6274 H       1  VEA11       0.0000
     52 H25        33.3968   28.8370   21.8927 H       1  VEA11       0.0282
     53 H26        32.9769   27.1315   22.2358 H       1  VEA11       0.0282
     54 C22        31.4036   28.4990   22.6334 C.3     1  VEA11      -0.0080
     55 C23        19.2867   25.2332   24.9977 C.3     1  VEA11       0.1125
     56 H27        18.2707   24.9506   24.3282 H       1  VEA11       0.1715
     57 H28        18.9670   25.5071   26.0363 H       1  VEA11       0.0718
     58 C24        19.9698   26.4923   24.4285 C.3     1  VEA11       0.0365
     59 O5         17.3096   25.4425   24.2183 O.3     1  VEA11      -0.5506
     60 H29        18.5880   24.6316   23.5355 H       1  VEA11       0.2503
     61 H30        18.1651   24.2375   24.4911 H       1  VEA11       0.0262
     62 O6         18.9320   24.4566   22.4570 O.3     1  VEA11      -0.2528
     63 H31        16.5956   25.0509   23.4391 H       1  VEA11       0.1796
     64 H32        17.4313   26.3992   23.9433 H       1  VEA11       0.1472
     65 C25        16.4976   25.5603   25.3865 C.3     1  VEA11       0.1150
     66 C26        15.8678   24.9682   22.4742 C.2     1  VEA11      -0.0589
     67 C27        15.2993   26.2400   21.8948 C.3     1  VEA11      -0.0224
     68 H33        14.6678   26.7578   22.6754 H       1  VEA11       0.2000
     69 H34        14.2848   27.1584   23.1214 H       1  VEA11       0.0279
     70 H35        14.2848   27.1584   23.1214 H       1  VEA11       0.0279
     71 O7         14.1058   27.3156   23.2756 O.3     1  VEA11      -0.2536
     72 C28        15.5918   23.7779   21.9449 C.2     1  VEA11      -0.0127
     73 H36        16.1431   26.9180   21.5655 H       1  VEA11       0.0431
     74 H37        14.6557   26.0072   21.0100 H       1  VEA11       0.0291
     75 H38        16.6238   27.4133   21.3928 H       1  VEA11       0.0059
     76 H39        16.6238   27.4133   21.3928 H       1  VEA11       0.0059
     77 C          16.8700   27.6928   21.2172 C.3     2  UNL22      -0.0285
     78 C          32.3245   30.5218   24.5921 C.ar    2  UNL22      -0.0380
     79 C          31.3514   30.1563   25.5334 C.ar    2  UNL22      -0.0061
     80 C          30.1405   30.8453   25.6213 C.ar    2  UNL22      -0.0093
     81 C          29.8869   31.9184   24.7671 C.ar    2  UNL22      -0.0534
     82 C          30.8466   32.3030   23.8273 C.ar    2  UNL22      -0.0609
     83 C          32.0607   31.6121   23.7401 C.ar    2  UNL22      -0.0579
     84 C          33.6512   29.7734   24.5011 C.3     2  UNL22      -0.0119
     85 H          34.1868   29.8461   25.4933 H       2  UNL22       0.0236
     86 H          35.1856   32.8229   23.6714 H       2  UNL22       0.0000
     87 H          34.2794   30.3102   23.7488 H       2  UNL22       0.0324
     88 H          34.5729   29.9397   26.0845 H       2  UNL22       0.0031
     89 H          34.5729   29.9397   26.0845 H       2  UNL22       0.0031
     90 H          34.5729   29.9397   26.0845 H       2  UNL22       0.0031
     91 H          32.7893   31.9264   23.0039 H       2  UNL22       0.0620
     92 H          28.9475   32.4503   24.8368 H       2  UNL22       0.0624
     93 H          30.6495   33.1366   23.1659 H       2  UNL22       0.0618
@<TRIPOS>BOND
     1    76    73    1
     2    77    73    1
     3    73    75    1
     4    73    67    1
     5    52    50    1
     6    54    50    1
     7    50    53    1
     8    50    44    1
     9    74    67    1
    10    67    66    1
    11    67    68    1
    12    70    68    1
    13    44    43    1
    14    44    46    1
    15    66    72    2
    16    66    63    1
    17    68    71    1
    18    68    69    1
    19    48    46    1
    20    63    59    1
    21    61    56    1
    22    64    59    1
    23    38    33    1
    24    43    40    1
    25    43    45    2
    26    46    47    1
    27    46    49    1
    28    40    36    1
    29    59    56    1
    30    59    65    1
    31    42    36    1
    32    56    60    1
    33    56    55    1
    34    62    60    1
    35    39    37    1
    36    36    33    1
    37    36    41    1
    38    33    37    1
    39    33    32    1
    40    57    55    1
    41    27    12    1
    42    24    20    1
    43    31    55    1
    44    31    19    1
    45    55    58    1
    46    30    32    1
    47    30    13    1
    48    34    32    1
    49    32    35    1
    50    12    13   ar
    51    12    11   ar
    52    20    19   ar
    53    20    21   ar
    54    19    18   ar
    55    13    14   ar
    56    26    11    1
    57    11    10   ar
    58    25    21    1
    59    21    16   ar
    60    18    23    1
    61    18    17   ar
    62    14    28    1
    63    14    15   ar
    64    16    17   ar
    65    16     1    1
    66    10    15   ar
    67    10     1    1
    68    17    22    1
    69    15    29    1
    70     1     2    1
    71     1     6    1
    72     5     2    1
    73     8     6    1
    74     2     3    1
    75     2     4    1
    76     6     9    1
    77     6     7    1
    78    78    83   ar
    79    79    78   ar
    80    79    80   ar
    81    80    81   ar
    82    81    92    1
    83    81    82   ar
    84    82    93    1
    85    83    82   ar
    86    83    91    1
    87    84    78    1
    88    84    85    1
    89    85    88    1
    90    87    84    1
    91    89    85    1
    92    90    85    1
    93    44    84    1
