@<TRIPOS>MOLECULE
*****
 93 95 0 0 0
SMALL
GASTEIGER
@<TRIPOS>ATOM
      1 C             25.14     24.12     28.38  C.3    1  VEA        0.0151
      2 C1            25.36     25.39     29.26  C.3    1  VEA       -0.0517
      3 H             26.29      25.3     29.83    H    1  VEA        0.0241
      4 H1            24.54     25.52     29.97    H    1  VEA        0.0241
      5 H2            25.43     26.29     28.64    H    1  VEA        0.0241
      6 C2            24.92     22.94     29.36  C.3    1  VEA       -0.0517
      7 H3            25.71     22.89     30.12    H    1  VEA        0.0241
      8 H4            24.89     21.98     28.82    H    1  VEA        0.0241
      9 H5            23.96     23.05     29.88    H    1  VEA        0.0241
     10 C3             26.4     23.96     27.52 C.ar    1  VEA       -0.0372
     11 C4            26.59     24.81     26.41 C.ar    1  VEA       -0.0543
     12 C5            27.76     24.75     25.63 C.ar    1  VEA       -0.0197
     13 C6            28.77     23.84     25.95 C.ar    1  VEA        0.1206
     14 C7             28.6     22.98     27.05 C.ar    1  VEA       -0.0197
     15 C8            27.43     23.04     27.83 C.ar    1  VEA       -0.0543
     16 C9            23.89     24.21     27.49 C.ar    1  VEA       -0.0372
     17 C10           22.93     25.24     27.62 C.ar    1  VEA       -0.0543
     18 C11           21.77     25.25     26.82 C.ar    1  VEA       -0.0197
     19 C12           21.55     24.22     25.88 C.ar    1  VEA        0.1206
     20 C13            22.5      23.2     25.74 C.ar    1  VEA       -0.0197
     21 C14           23.66      23.2     26.54 C.ar    1  VEA       -0.0543
     22 H6            23.05     26.04     28.34    H    1  VEA        0.0622
     23 H7            21.05     26.05     26.95    H    1  VEA        0.0654
     24 H8            22.33     22.41     25.02    H    1  VEA        0.0654
     25 H9            24.37     22.39     26.42    H    1  VEA        0.0622
     26 H10           25.82     25.54     26.15    H    1  VEA        0.0622
     27 H11           27.88     25.41     24.78    H    1  VEA        0.0654
     28 H12           29.36     22.26     27.33    H    1  VEA        0.0654
     29 H13           27.34     22.38     28.68    H    1  VEA        0.0622
     30 O             29.92     23.84     25.19  O.3    1  VEA       -0.4893
     31 O1            20.42     24.17     25.09  O.3    1  VEA       -0.4893
     32 C15           31.11     23.13     25.57  C.3    1  VEA        0.1186
     33 C16           32.25     23.45     24.57  C.3    1  VEA        0.1230
     34 H14           30.92     22.05     25.56    H    1  VEA        0.0724
     35 H15           31.42     23.43     26.58    H    1  VEA        0.0724
     36 C17           32.55     24.96     24.53  C.3    1  VEA        0.1215
     37 O2            33.43     22.75     24.96  O.3    1  VEA       -0.3850
     38 H16           31.94     23.12     23.57    H    1  VEA        0.0662
     39 H17           34.15     23.18     24.46    H    1  VEA        0.2101
     40 O3            33.73     25.16     23.72  O.3    1  VEA       -0.4617
     41 H18           32.71     25.34     25.54    H    1  VEA        0.0725
     42 H19            31.7      25.5     24.09    H    1  VEA        0.0725
     43 C18           34.18     26.44     23.58  C.2    1  VEA        0.3097
     44 C19           35.45      26.5     22.72  C.3    1  VEA        0.0508
     45 O4            33.65     27.42     24.07  O.2    1  VEA       -0.2506
     46 C20           36.65     26.95     23.58  C.3    1  VEA       -0.0525
     47 H20           36.48     27.96     23.98    H    1  VEA        0.0237
     48 H21           37.57     26.96     22.99    H    1  VEA        0.0237
     49 H22           36.79     26.27     24.43    H    1  VEA        0.0237
     50 C21           35.24     27.44     21.51  C.3    1  VEA       -0.0525
     51 H24           36.14     27.45     20.88    H    1  VEA        0.0237
     52 H25           35.04     28.47     21.85    H    1  VEA        0.0237
     53 H26           34.39     27.11      20.9    H    1  VEA        0.0237
     54 C22            19.4     25.18     25.12  C.3    1  VEA        0.1186
     55 C23           18.24     24.76     24.19  C.3    1  VEA        0.1230
     56 H27           19.82     26.13     24.77    H    1  VEA        0.0724
     57 H28           19.01     25.31     26.14    H    1  VEA        0.0724
     58 C24            17.3     25.95      23.9  C.3    1  VEA        0.1215
     59 O5            17.46     23.73     24.81  O.3    1  VEA       -0.3850
     60 H29           18.65     24.41     23.23    H    1  VEA        0.0662
     61 H30           16.65     23.66     24.27    H    1  VEA        0.2101
     62 O6            16.18     25.48     23.12  O.3    1  VEA       -0.4617
     63 H31           17.84     26.73     23.34    H    1  VEA        0.0725
     64 H32           16.94     26.39     24.84    H    1  VEA        0.0725
     65 C25           15.22     26.39     22.78  C.2    1  VEA        0.3097
     66 C26           14.09     25.74     21.98  C.3    1  VEA        0.0508
     67 C27           12.77      25.8     22.79  C.3    1  VEA       -0.0525
     68 H33            12.9     25.31     23.76    H    1  VEA        0.0237
     69 H34           11.96      25.3     22.25    H    1  VEA        0.0237
     70 H35           12.48     26.84     22.97    H    1  VEA        0.0237
     71 O7            15.26     27.57     23.07  O.2    1  VEA       -0.2506
     72 C28           13.93     26.42     20.61  C.3    1  VEA       -0.0525
     73 H36           14.34     24.68     21.82    H    1  VEA        0.0408
     74 H37           13.67     27.48     20.73    H    1  VEA        0.0237
     75 H38           13.14     25.93     20.02    H    1  VEA        0.0237
     76 H39           14.87     26.36     20.04    H    1  VEA        0.0237
     77 C             34.09     23.48     21.24 C.ar    1 CRO0       -0.0476
     78 C1            32.92     22.71     21.22 C.ar    1 CRO0       -0.0586
     79 C2            32.98     21.31     21.24 C.ar    1 CRO0       -0.0615
     80 C3            34.23     20.66     21.28 C.ar    1 CRO0       -0.0617
     81 C4            35.41     21.43     21.31 C.ar    1 CRO0       -0.0615
     82 C5            35.34     22.83     21.29 C.ar    1 CRO0       -0.0586
     83 C6            33.95      25.0     21.22  C.3    1 CRO0       -0.0305
     84 C7            35.26     25.81     21.25  C.3    1 CRO0       -0.0613
     85 H1            33.39     25.29     20.32    H    1 CRO0        0.0311
     86 H2            35.83     25.59     22.16    H    1 CRO0        0.0233
     87 H3            35.05     26.88     21.22    H    1 CRO0        0.0233
     88 H4            35.89     25.57     20.38    H    1 CRO0        0.0233
     89 H5            36.27     23.39     21.31    H    1 CRO0        0.0620
     90 H6            34.28     19.58      21.3    H    1 CRO0        0.0618
     91 H7            36.37     20.93     21.35    H    1 CRO0        0.0618
     92 H8            31.95     23.19     21.18    H    1 CRO0        0.0620
     93 H9            32.07     20.72     21.22    H    1 CRO0        0.0618
@<TRIPOS>BOND
     1    75    72    1
     2    76    72    1
     3    72    74    1
     4    72    66    1
     5    51    50    1
     6    53    50    1
     7    50    52    1
     8    50    44    1
     9    73    66    1
    10    66    65    1
    11    66    67    1
    12    69    67    1
    13    44    43    1
    14    44    46    1
    15    65    71    2
    16    65    62    1
    17    67    70    1
    18    67    68    1
    19    48    46    1
    20    62    58    1
    21    60    55    1
    22    63    58    1
    23    38    33    1
    24    43    40    1
    25    43    45    2
    26    46    47    1
    27    46    49    1
    28    40    36    1
    29    58    55    1
    30    58    64    1
    31    42    36    1
    32    55    59    1
    33    55    54    1
    34    61    59    1
    35    39    37    1
    36    36    33    1
    37    36    41    1
    38    33    37    1
    39    33    32    1
    40    56    54    1
    41    27    12    1
    42    24    20    1
    43    31    54    1
    44    31    19    1
    45    54    57    1
    46    30    32    1
    47    30    13    1
    48    34    32    1
    49    32    35    1
    50    12    13   ar
    51    12    11   ar
    52    20    19   ar
    53    20    21   ar
    54    19    18   ar
    55    13    14   ar
    56    26    11    1
    57    11    10   ar
    58    25    21    1
    59    21    16   ar
    60    18    23    1
    61    18    17   ar
    62    14    28    1
    63    14    15   ar
    64    16    17   ar
    65    16     1    1
    66    10    15   ar
    67    10     1    1
    68    17    22    1
    69    15    29    1
    70     1     2    1
    71     1     6    1
    72     5     2    1
    73     8     6    1
    74     2     3    1
    75     2     4    1
    76     6     9    1
    77     6     7    1
    78    85    83    1
    79    88    84    1
    80    92    78    1
    81    78    77   ar
    82    78    79   ar
    83    83    77    1
    84    83    84    1
    85    87    84    1
    86    93    79    1
    87    77    82   ar
    88    79    80   ar
    89    84    86    1
    90    80    90    1
    91    80    81   ar
    92    82    81   ar
    93    82    89    1
    94    81    91    1
    95    83    44    1
