@<TRIPOS>MOLECULE
*****
 93 95 0 0 0
SMALL
GASTEIGER

@<TRIPOS>ATOM
      1 C          -1.5529   -0.5081    4.0757 C.3     1  VEA1        0.0151
      2 C1         -1.3667    0.7547    4.9583 C.3     1  VEA1       -0.0517
      3 H          -0.4547    0.6822    5.5646 H       1  VEA1        0.0241
      4 H1         -2.2041    0.8898    5.6531 H       1  VEA1        0.0241
      5 H2         -1.2807    1.6699    4.3603 H       1  VEA1        0.0241
      6 C2         -1.7688   -1.6875    5.0610 C.3     1  VEA1       -0.0517
      7 H3         -0.9754   -1.7358    5.8164 H       1  VEA1        0.0241
      8 H4         -1.7949   -2.6570    4.5498 H       1  VEA1        0.0241
      9 H5         -2.7179   -1.5810    5.6016 H       1  VEA1        0.0241
     10 C3         -0.2620   -0.6325    3.2321 C.ar    1  VEA1       -0.0372
     11 C4         -0.0317    0.2683    2.1751 C.ar    1  VEA1       -0.0543
     12 C5          1.1458    0.2192    1.4251 C.ar    1  VEA1       -0.0197
     13 C6          2.1318   -0.7217    1.7122 C.ar    1  VEA1        0.1206
     14 C7          1.9161   -1.6349    2.7404 C.ar    1  VEA1       -0.0197
     15 C8          0.7338   -1.5880    3.4940 C.ar    1  VEA1       -0.0543
     16 C9         -2.8104   -0.4542    3.1751 C.ar    1  VEA1       -0.0372
     17 C10        -3.7415    0.5960    3.2237 C.ar    1  VEA1       -0.0543
     18 C11        -4.8817    0.5996    2.4069 C.ar    1  VEA1       -0.0197
     19 C12        -5.1216   -0.4512    1.5258 C.ar    1  VEA1        0.1206
     20 C13        -4.2021   -1.4958    1.4563 C.ar    1  VEA1       -0.0197
     21 C14        -3.0631   -1.4997    2.2670 C.ar    1  VEA1       -0.0543
     22 H6         -3.6096    1.4370    3.8989 H       1  VEA1        0.0622
     23 H7         -5.5617    1.4403    2.4924 H       1  VEA1        0.0654
     24 H8         -4.3741   -2.3201    0.7685 H       1  VEA1        0.0654
     25 H9         -2.3685   -2.3333    2.1799 H       1  VEA1        0.0622
     26 H10        -0.7723    1.0257    1.9247 H       1  VEA1        0.0622
     27 H11         1.2965    0.9294    0.6157 H       1  VEA1        0.0654
     28 H12         2.6470   -2.3975    2.9892 H       1  VEA1        0.0654
     29 H13         0.6229   -2.3137    4.2950 H       1  VEA1        0.0622
     30 O           3.2445   -0.6381    0.9255 O.3     1  VEA1       -0.4893
     31 O1         -6.1969   -0.5764    0.6915 O.3     1  VEA1       -0.4893
     32 C15         4.3490   -1.4740    1.2632 C.3     1  VEA1        0.1186
     33 C16         5.5496   -1.0819    0.3984 C.3     1  VEA1        0.1230
     34 H14         4.0954   -2.5251    1.0766 H       1  VEA1        0.0724
     35 H15         4.6188   -1.3668    2.3222 H       1  VEA1        0.0724
     36 C17         6.0329    0.3362    0.7255 C.3     1  VEA1        0.1215
     37 O2          6.6134   -2.0150    0.6297 O.3     1  VEA1       -0.3850
     38 H16         5.2767   -1.1438   -0.6599 H       1  VEA1        0.0662
     39 H17         7.3150   -1.7866   -0.0108 H       1  VEA1        0.2101
     40 O3          7.1920    0.6583   -0.0710 O.3     1  VEA1       -0.4617
     41 H18         6.3653    0.3880    1.7682 H       1  VEA1        0.0725
     42 H19         5.2441    1.0858    0.5955 H       1  VEA1        0.0725
     43 C18         6.9599    1.2632   -1.2658 C.2     1  VEA1        0.3097
     44 C19         8.2608    1.5556   -2.0320 C.3     1  VEA1        0.0508
     45 O4          5.8441    1.5280   -1.6988 O.2     1  VEA1       -0.2506
     46 C20         9.5113    1.3356   -1.1567 C.3     1  VEA1       -0.0525
     47 H20         9.4818    1.9768   -0.2669 H       1  VEA1        0.0237
     48 H21        10.4329    1.5778   -1.6950 H       1  VEA1        0.0237
     49 H22         9.5923    0.3064   -0.7950 H       1  VEA1        0.0237
     50 C21         8.2173    3.0615   -2.3779 C.3     1  VEA1       -0.0525
     51 H24         9.1566    3.4041   -2.8245 H       1  VEA1        0.0237
     52 H25         8.0424    3.6661   -1.4795 H       1  VEA1        0.0237
     53 H26         7.4078    3.2887   -3.0810 H       1  VEA1        0.0237
     54 C22        -7.2116    0.4309    0.7768 C.3     1  VEA1        0.1186
     55 C23        -8.3846    0.0166   -0.1192 C.3     1  VEA1        0.1230
     56 H27        -6.7934    1.3825    0.4286 H       1  VEA1        0.0724
     57 H28        -7.5627    0.5201    1.8122 H       1  VEA1        0.0724
     58 C24        -9.3424    1.1864   -0.3504 C.3     1  VEA1        0.1215
     59 O5         -9.1115   -1.0518    0.5112 O.3     1  VEA1       -0.3850
     60 H29        -8.0209   -0.3779   -1.0750 H       1  VEA1        0.0662
     61 H30        -9.8540   -1.2630   -0.0833 H       1  VEA1        0.2101
     62 O6        -10.4108    0.7262   -1.2001 O.3     1  VEA1       -0.4617
     63 H31        -8.8176    2.0174   -0.8355 H       1  VEA1        0.0725
     64 H32        -9.7753    1.5159    0.6017 H       1  VEA1        0.0725
     65 C25       -11.3151    1.6921   -1.5269 C.2     1  VEA1        0.3097
     66 C26       -12.4326    1.1047   -2.3655 C.3     1  VEA1        0.0508
     67 C27       -13.7325    1.1398   -1.5713 C.3     1  VEA1       -0.0525
     68 H33       -13.6258    0.5946   -0.6271 H       1  VEA1        0.0237
     69 H34       -14.5487    0.6807   -2.1386 H       1  VEA1        0.0237
     70 H35       -14.0243    2.1672   -1.3260 H       1  VEA1        0.0237
     71 O7        -11.2442    2.8620   -1.1788 O.2     1  VEA1       -0.2506
     72 C28       -12.5529    1.8710   -3.6770 C.3     1  VEA1       -0.0525
     73 H36       -12.1914    0.0602   -2.5986 H       1  VEA1        0.0408
     74 H37       -12.8092    2.9224   -3.5061 H       1  VEA1        0.0237
     75 H38       -13.3275    1.4318   -4.3142 H       1  VEA1        0.0237
     76 H39       -11.6063    1.8482   -4.2277 H       1  VEA1        0.0237
     77 C           8.0792   -0.8066   -3.0886 C.ar    1  CRO01      -0.0476
     78 C1          6.8043   -1.3805   -3.2303 C.ar    1  CRO01      -0.0586
     79 C2          6.5978   -2.7396   -2.9886 C.ar    1  CRO01      -0.0615
     80 C3          7.6627   -3.5475   -2.6023 C.ar    1  CRO01      -0.0617
     81 C4          8.9346   -2.9978   -2.4654 C.ar    1  CRO01      -0.0615
     82 C5          9.1427   -1.6383   -2.7100 C.ar    1  CRO01      -0.0586
     83 C6          8.2544    0.6908   -3.3414 C.3     1  CRO01      -0.0305
     84 C7          9.4448    0.9552   -4.2794 C.3     1  CRO01      -0.0613
     85 H1          7.3734    1.0040   -3.9231 H       1  CRO01       0.0311
     86 H2         10.4082    0.7332   -3.8114 H       1  CRO01       0.0233
     87 H3          9.4651    1.9982   -4.6096 H       1  CRO01       0.0233
     88 H4          9.3698    0.3358   -5.1811 H       1  CRO01       0.0233
     89 H5         10.1489   -1.2421   -2.5977 H       1  CRO01       0.0620
     90 H6          7.5013   -4.6049   -2.4097 H       1  CRO01       0.0618
     91 H7          9.7683   -3.6298   -2.1696 H       1  CRO01       0.0618
     92 H8          5.9526   -0.7675   -3.5238 H       1  CRO01       0.0620
     93 H9          5.6030   -3.1645   -3.0972 H       1  CRO01       0.0618
@<TRIPOS>BOND
     1    75    72    1
     2    76    72    1
     3    72    74    1
     4    72    66    1
     5    51    50    1
     6    53    50    1
     7    50    52    1
     8    50    44    1
     9    73    66    1
    10    66    65    1
    11    66    67    1
    12    69    67    1
    13    44    43    1
    14    44    46    1
    15    65    71    2
    16    65    62    1
    17    67    70    1
    18    67    68    1
    19    48    46    1
    20    62    58    1
    21    60    55    1
    22    63    58    1
    23    38    33    1
    24    43    40    1
    25    43    45    2
    26    46    47    1
    27    46    49    1
    28    40    36    1
    29    58    55    1
    30    58    64    1
    31    42    36    1
    32    55    59    1
    33    55    54    1
    34    61    59    1
    35    39    37    1
    36    36    33    1
    37    36    41    1
    38    33    37    1
    39    33    32    1
    40    56    54    1
    41    27    12    1
    42    24    20    1
    43    31    54    1
    44    31    19    1
    45    54    57    1
    46    30    32    1
    47    30    13    1
    48    34    32    1
    49    32    35    1
    50    12    13   ar
    51    12    11   ar
    52    20    19   ar
    53    20    21   ar
    54    19    18   ar
    55    13    14   ar
    56    26    11    1
    57    11    10   ar
    58    25    21    1
    59    21    16   ar
    60    18    23    1
    61    18    17   ar
    62    14    28    1
    63    14    15   ar
    64    16    17   ar
    65    16     1    1
    66    10    15   ar
    67    10     1    1
    68    17    22    1
    69    15    29    1
    70     1     2    1
    71     1     6    1
    72     5     2    1
    73     8     6    1
    74     2     3    1
    75     2     4    1
    76     6     9    1
    77     6     7    1
    78    85    83    1
    79    88    84    1
    80    92    78    1
    81    78    77   ar
    82    78    79   ar
    83    83    77    1
    84    83    84    1
    85    87    84    1
    86    93    79    1
    87    77    82   ar
    88    79    80   ar
    89    84    86    1
    90    80    90    1
    91    80    81   ar
    92    82    81   ar
    93    82    89    1
    94    81    91    1
    95    83    44    1
