@<TRIPOS>MOLECULE
*****
   93    95     1     0     0
SMALL
gas


@<TRIPOS>ATOM
      1 C           -1.5530    -0.5080     4.0760 c3         1 VEA       0.014609
      2 C1          -1.3670     0.7550     4.9580 c3         1 VEA      -0.051690
      3 H           -0.4550     0.6820     5.5650 hc         1 VEA       0.024276
      4 H1          -2.2040     0.8900     5.6530 hc         1 VEA       0.024276
      5 H2          -1.2810     1.6700     4.3600 hc         1 VEA       0.024276
      6 C2          -1.7690    -1.6880     5.0610 c3         1 VEA      -0.051690
      7 H3          -0.9750    -1.7360     5.8160 hc         1 VEA       0.024276
      8 H4          -1.7950    -2.6570     4.5500 hc         1 VEA       0.024276
      9 H5          -2.7180    -1.5810     5.6020 hc         1 VEA       0.024276
     10 C3          -0.2620    -0.6320     3.2320 ca         1 VEA      -0.037779
     11 C4          -0.0320     0.2680     2.1750 ca         1 VEA      -0.055557
     12 C5           1.1460     0.2190     1.4250 ca         1 VEA      -0.031490
     13 C6           2.1320    -0.7220     1.7120 ca         1 VEA       0.075038
     14 C7           1.9160    -1.6350     2.7400 ca         1 VEA      -0.031490
     15 C8           0.7340    -1.5880     3.4940 ca         1 VEA      -0.055557
     16 C9          -2.8100    -0.4540     3.1750 ca         1 VEA      -0.037779
     17 C10         -3.7410     0.5960     3.2240 ca         1 VEA      -0.055557
     18 C11         -4.8820     0.6000     2.4070 ca         1 VEA      -0.031490
     19 C12         -5.1220    -0.4510     1.5260 ca         1 VEA       0.075038
     20 C13         -4.2020    -1.4960     1.4560 ca         1 VEA      -0.031490
     21 C14         -3.0630    -1.5000     2.2670 ca         1 VEA      -0.055557
     22 H6          -3.6100     1.4370     3.8990 ha         1 VEA       0.062694
     23 H7          -5.5620     1.4400     2.4920 ha         1 VEA       0.065055
     24 H8          -4.3740    -2.3200     0.7680 ha         1 VEA       0.065055
     25 H9          -2.3690    -2.3330     2.1800 ha         1 VEA       0.062694
     26 H10         -0.7720     1.0260     1.9250 ha         1 VEA       0.062694
     27 H11          1.2960     0.9290     0.6160 ha         1 VEA       0.065055
     28 H12          2.6470    -2.3970     2.9890 ha         1 VEA       0.065055
     29 H13          0.6230    -2.3140     4.2950 ha         1 VEA       0.062694
     30 O            3.2440    -0.6380     0.9250 os         1 VEA      -0.343351
     31 O1          -6.1970    -0.5760     0.6920 os         1 VEA      -0.343351
     32 C15          4.3490    -1.4740     1.2630 c3         1 VEA       0.081544
     33 C16          5.5500    -1.0820     0.3980 c3         1 VEA       0.101764
     34 H14          4.0950    -2.5250     1.0770 h1         1 VEA       0.060081
     35 H15          4.6190    -1.3670     2.3220 h1         1 VEA       0.060081
     36 C17          6.0330     0.3360     0.7260 c3         1 VEA       0.084607
     37 O2           6.6130    -2.0150     0.6300 oh         1 VEA      -0.388274
     38 H16          5.2770    -1.1440    -0.6600 h1         1 VEA       0.065019
     39 H17          7.3150    -1.7870    -0.0110 ho         1 VEA       0.210692
     40 O3           7.1920     0.6580    -0.0710 os         1 VEA      -0.312742
     41 H18          6.3650     0.3880     1.7680 h1         1 VEA       0.060196
     42 H19          5.2440     1.0860     0.5960 h1         1 VEA       0.060196
     43 C18          6.9600     1.2630    -1.2660 c          1 VEA       0.267164
     44 C19          8.2610     1.5560    -2.0320 c3         1 VEA       0.057309
     45 O4           5.8440     1.5280    -1.6990 o          1 VEA      -0.265976
     46 C20          9.5110     1.3360    -1.1570 c3         1 VEA      -0.049867
     47 H20          9.4820     1.9770    -0.2670 hc         1 VEA       0.024155
     48 H21         10.4330     1.5780    -1.6950 hc         1 VEA       0.024155
     49 H22          9.5920     0.3060    -0.7950 hc         1 VEA       0.024155
     50 C21          8.2170     3.0620    -2.3780 c3         1 VEA      -0.049867
     51 H24          9.1570     3.4040    -2.8250 hc         1 VEA       0.024155
     52 H25          8.0420     3.6660    -1.4800 hc         1 VEA       0.024155
     53 H26          7.4080     3.2890    -3.0810 hc         1 VEA       0.024155
     54 C22         -7.2120     0.4310     0.7770 c3         1 VEA       0.081544
     55 C23         -8.3850     0.0170    -0.1190 c3         1 VEA       0.101764
     56 H27         -6.7930     1.3830     0.4290 h1         1 VEA       0.060081
     57 H28         -7.5630     0.5200     1.8120 h1         1 VEA       0.060081
     58 C24         -9.3420     1.1860    -0.3500 c3         1 VEA       0.084596
     59 O5          -9.1110    -1.0520     0.5110 oh         1 VEA      -0.388274
     60 H29         -8.0210    -0.3780    -1.0750 h1         1 VEA       0.065019
     61 H30         -9.8540    -1.2630    -0.0830 ho         1 VEA       0.210692
     62 O6         -10.4110     0.7260    -1.2000 os         1 VEA      -0.312982
     63 H31         -8.8180     2.0170    -0.8360 h1         1 VEA       0.060196
     64 H32         -9.7750     1.5160     0.6020 h1         1 VEA       0.060196
     65 C25        -11.3150     1.6920    -1.5270 c          1 VEA       0.263425
     66 C26        -12.4330     1.1050    -2.3650 c3         1 VEA       0.039496
     67 C27        -13.7320     1.1400    -1.5710 c3         1 VEA      -0.053343
     68 H33        -13.6260     0.5950    -0.6270 hc         1 VEA       0.023845
     69 H34        -14.5490     0.6810    -2.1390 hc         1 VEA       0.023845
     70 H35        -14.0240     2.1670    -1.3260 hc         1 VEA       0.023845
     71 O7         -11.2440     2.8620    -1.1790 o          1 VEA      -0.266333
     72 C28        -12.5530     1.8710    -3.6770 c3         1 VEA      -0.053343
     73 H36        -12.1910     0.0600    -2.5990 hc         1 VEA       0.040359
     74 H37        -12.8090     2.9220    -3.5060 hc         1 VEA       0.023845
     75 H38        -13.3280     1.4320    -4.3140 hc         1 VEA       0.023845
     76 H39        -11.6060     1.8480    -4.2280 hc         1 VEA       0.023845
     77 C29          8.0790    -0.8070    -3.0890 ca         1 CRO      -0.044120
     78 C30          6.8040    -1.3810    -3.2300 ca         1 CRO      -0.058741
     79 C31          6.5980    -2.7400    -2.9890 ca         1 CRO      -0.061987
     80 C32          7.6630    -3.5470    -2.6020 ca         1 CRO      -0.062252
     81 C33          8.9350    -2.9980    -2.4650 ca         1 CRO      -0.061987
     82 C34          9.1430    -1.6380    -2.7100 ca         1 CRO      -0.058741
     83 C35          8.2540     0.6910    -3.3410 c3         1 CRO      -0.004518
     84 C36          9.4450     0.9550    -4.2790 c3         1 CRO      -0.057373
     85 H23          7.3730     1.0040    -3.9230 hc         1 CRO       0.036042
     86 H40         10.4080     0.7330    -3.8110 hc         1 CRO       0.023692
     87 H41          9.4650     1.9980    -4.6100 hc         1 CRO       0.023692
     88 H42          9.3700     0.3360    -5.1810 hc         1 CRO       0.023692
     89 H43         10.1490    -1.2420    -2.5980 ha         1 CRO       0.062576
     90 H44          7.5010    -4.6050    -2.4100 ha         1 CRO       0.062273
     91 H45          9.7680    -3.6300    -2.1700 ha         1 CRO       0.062283
     92 H46          5.9530    -0.7670    -3.5240 ha         1 CRO       0.062576
     93 H47          5.6030    -3.1640    -3.0970 ha         1 CRO       0.062283
@<TRIPOS>BOND
     1    75    72 1   
     2    76    72 1   
     3    72    74 1   
     4    72    66 1   
     5    51    50 1   
     6    53    50 1   
     7    50    52 1   
     8    50    44 1   
     9    73    66 1   
    10    66    65 1   
    11    66    67 1   
    12    69    67 1   
    13    44    43 1   
    14    44    46 1   
    15    65    71 2   
    16    65    62 1   
    17    67    70 1   
    18    67    68 1   
    19    48    46 1   
    20    62    58 1   
    21    60    55 1   
    22    63    58 1   
    23    38    33 1   
    24    43    40 1   
    25    43    45 2   
    26    46    47 1   
    27    46    49 1   
    28    40    36 1   
    29    58    55 1   
    30    58    64 1   
    31    42    36 1   
    32    55    59 1   
    33    55    54 1   
    34    61    59 1   
    35    39    37 1   
    36    36    33 1   
    37    36    41 1   
    38    33    37 1   
    39    33    32 1   
    40    56    54 1   
    41    27    12 1   
    42    24    20 1   
    43    31    54 1   
    44    31    19 1   
    45    54    57 1   
    46    30    32 1   
    47    30    13 1   
    48    34    32 1   
    49    32    35 1   
    50    12    13 ar  
    51    12    11 ar  
    52    20    19 ar  
    53    20    21 ar  
    54    19    18 ar  
    55    13    14 ar  
    56    26    11 1   
    57    11    10 ar  
    58    25    21 1   
    59    21    16 ar  
    60    18    23 1   
    61    18    17 ar  
    62    14    28 1   
    63    14    15 ar  
    64    16    17 ar  
    65    16     1 1   
    66    10    15 ar  
    67    10     1 1   
    68    17    22 1   
    69    15    29 1   
    70     1     2 1   
    71     1     6 1   
    72     5     2 1   
    73     8     6 1   
    74     2     3 1   
    75     2     4 1   
    76     6     9 1   
    77     6     7 1   
    78    85    83 1   
    79    88    84 1   
    80    92    78 1   
    81    78    77 ar  
    82    78    79 ar  
    83    83    77 1   
    84    83    84 1   
    85    87    84 1   
    86    93    79 1   
    87    77    82 ar  
    88    79    80 ar  
    89    84    86 1   
    90    80    90 1   
    91    80    81 ar  
    92    82    81 ar  
    93    82    89 1   
    94    81    91 1   
    95    83    44 1   
@<TRIPOS>SUBSTRUCTURE
     1 VEA         1 TEMP              0 ****  ****    0 ROOT
