@<TRIPOS>MOLECULE
*****
  141   146     1     0     0
SMALL
gas


@<TRIPOS>ATOM
      1 C            0.3230     0.5650     5.0380 c3         1 VEA       0.014613
      2 C1           0.4430     1.9190     5.7860 c3         1 VEA      -0.051690
      3 H            1.3120     1.9260     6.4560 hc         1 VEA       0.024275
      4 H1          -0.4390     2.1200     6.4060 hc         1 VEA       0.024275
      5 H2           0.5640     2.7630     5.0950 hc         1 VEA       0.024275
      6 C2           0.0240    -0.5030     6.1220 c3         1 VEA      -0.051690
      7 H3           0.7470    -0.4610     6.9460 hc         1 VEA       0.024275
      8 H4           0.0470    -1.5220     5.7160 hc         1 VEA       0.024275
      9 H5          -0.9690    -0.3520     6.5640 hc         1 VEA       0.024275
     10 C3           1.6790     0.3570     4.3220 ca         1 VEA      -0.037775
     11 C4           1.9740     1.0890     3.1550 ca         1 VEA      -0.055555
     12 C5           3.1970     0.9380     2.4950 ca         1 VEA      -0.031489
     13 C6           4.1690     0.0770     2.9970 ca         1 VEA       0.075048
     14 C7           3.8990    -0.6560     4.1490 ca         1 VEA      -0.031489
     15 C8           2.6680    -0.5150     4.8050 ca         1 VEA      -0.055555
     16 C9          -0.8620     0.5110     4.0430 ca         1 VEA      -0.037775
     17 C10         -1.8300     1.5230     3.9560 ca         1 VEA      -0.055555
     18 C11         -2.9020     1.4330     3.0560 ca         1 VEA      -0.031489
     19 C12         -3.0370     0.3230     2.2230 ca         1 VEA       0.075048
     20 C13         -2.0800    -0.6860     2.2890 ca         1 VEA      -0.031489
     21 C14         -1.0110    -0.6000     3.1890 ca         1 VEA      -0.055555
     22 H6          -1.7810     2.4080     4.5850 ha         1 VEA       0.062690
     23 H7          -3.6110     2.2530     3.0330 ha         1 VEA       0.065049
     24 H8          -2.1690    -1.5560     1.6420 ha         1 VEA       0.065049
     25 H9          -0.2870    -1.4120     3.2120 ha         1 VEA       0.062690
     26 H10          1.2450     1.7830     2.7400 ha         1 VEA       0.062690
     27 H11          3.3910     1.5070     1.5900 ha         1 VEA       0.065049
     28 H12          4.6190    -1.3570     4.5590 ha         1 VEA       0.065049
     29 H13          2.5100    -1.1070     5.7030 ha         1 VEA       0.062690
     30 O            5.3220     0.0070     2.2670 os         1 VEA      -0.343341
     31 O1          -4.0380     0.1210     1.3110 os         1 VEA      -0.343341
     32 C15          6.4920    -0.3770     2.9880 c3         1 VEA       0.081550
     33 C16          7.7220    -0.1570     2.1050 c3         1 VEA       0.101772
     34 H14          6.4430    -1.4390     3.2570 h1         1 VEA       0.060074
     35 H15          6.5940     0.2080     3.9120 h1         1 VEA       0.060074
     36 C17          7.8500     1.3000     1.6450 c3         1 VEA       0.084611
     37 O2           8.8950    -0.5430     2.8330 oh         1 VEA      -0.388266
     38 H16          7.6630    -0.8050     1.2230 h1         1 VEA       0.065010
     39 H17          9.6570    -0.3280     2.2610 ho         1 VEA       0.210686
     40 O3           9.0030     1.3720     0.7830 os         1 VEA      -0.312729
     41 H18          8.0250     1.9600     2.5020 h1         1 VEA       0.060189
     42 H19          6.9550     1.6160     1.0980 h1         1 VEA       0.060189
     43 C18          9.1560     2.5340     0.0910 c          1 VEA       0.267479
     44 C19         10.4050     2.5060    -0.8270 c3         1 VEA       0.060684
     45 O4           8.3620     3.4630     0.1480 o          1 VEA      -0.265950
     46 C20         11.5720     1.7300    -0.0960 c3         1 VEA      -0.031185
     47 H21         12.1540     2.4730     0.4710 hc         1 VEA       0.028391
     48 H22         11.1800     1.1300     0.7290 hc         1 VEA       0.028391
     49 C21         10.8650     3.9940    -0.8910 c3         1 VEA      -0.049575
     50 H24         11.8190     4.0990    -1.4170 hc         1 VEA       0.024164
     51 H25         10.9930     4.4170     0.1130 hc         1 VEA       0.024164
     52 H26         10.1250     4.6230    -1.4020 hc         1 VEA       0.024164
     53 C22         -5.1720     0.9880     1.4170 c3         1 VEA       0.081550
     54 C23         -6.3140     0.4870     0.5140 c3         1 VEA       0.101772
     55 H27         -4.8720     1.9950     1.1020 h1         1 VEA       0.060074
     56 H28         -5.5280     1.0060     2.4560 h1         1 VEA       0.060074
     57 C24         -7.4400     1.5370     0.4970 c3         1 VEA       0.084611
     58 O5          -6.7840    -0.7560     1.0580 oh         1 VEA      -0.388266
     59 H29         -5.9520     0.2780    -0.4980 h1         1 VEA       0.065010
     60 H30         -7.6950    -0.9130     0.7340 ho         1 VEA       0.210686
     61 O6          -8.3260     1.4370    -0.6400 os         1 VEA      -0.312729
     62 H31         -7.0120     2.5430     0.4290 h1         1 VEA       0.060189
     63 H32         -8.0350     1.4980     1.4180 h1         1 VEA       0.060189
     64 C25         -9.2980     0.4890    -0.5800 c          1 VEA       0.267479
     65 C26        -10.4790     0.7640    -1.5470 c3         1 VEA       0.060684
     66 C27        -11.7710     0.3340    -0.7380 c3         1 VEA      -0.031185
     67 H34        -11.5150    -0.4760    -0.0530 hc         1 VEA       0.028391
     68 H35        -11.9510     1.1570    -0.0270 hc         1 VEA       0.028391
     69 O7          -9.2350    -0.4590     0.1960 o          1 VEA      -0.265950
     70 C28        -10.5710     2.3090    -1.7610 c3         1 VEA      -0.049575
     71 H37        -10.7980     2.8310    -0.8240 hc         1 VEA       0.024164
     72 H38        -11.3360     2.5750    -2.4940 hc         1 VEA       0.024164
     73 H39         -9.6370     2.7460    -2.1280 hc         1 VEA       0.024164
     74 C29          9.4560     0.6100    -2.4540 ca         1 CRO      -0.044104
     75 C33          8.2080     0.1850    -1.9630 ca         1 CRO      -0.058737
     76 C37          7.7780    -1.1370    -2.1130 ca         1 CRO      -0.061983
     77 C41          8.5750    -2.0590    -2.7830 ca         1 CRO      -0.062248
     78 C45          9.7910    -1.6520    -3.3200 ca         1 CRO      -0.061983
     79 C49         10.2190    -0.3300    -3.1680 ca         1 CRO      -0.058737
     80 C53          9.8890     2.0680    -2.2680 c3         1 CRO      -0.004225
     81 C57         10.7600     2.5760    -3.4400 c3         1 CRO      -0.057363
     82 H20          8.9510     2.6260    -2.4230 hc         1 CRO       0.036050
     83 H40         11.8000     2.2510    -3.3730 hc         1 CRO       0.023692
     84 H44         10.7610     3.6700    -3.4890 hc         1 CRO       0.023692
     85 H48         10.3630     2.2330    -4.4030 hc         1 CRO       0.023692
     86 H52         11.1690    -0.0590    -3.6200 ha         1 CRO       0.062571
     87 H56          8.2450    -3.0870    -2.8990 ha         1 CRO       0.062269
     88 H60         10.4140    -2.3630    -3.8560 ha         1 CRO       0.062279
     89 H64          7.5400     0.8860    -1.4670 ha         1 CRO       0.062571
     90 H68          6.8140    -1.4420    -1.7140 ha         1 CRO       0.062279
     91 C30         12.6490    -0.5820    -0.4090 ca         1 CRO      -0.045151
     92 C34         11.4710    -1.2820    -0.0810 ca         1 CRO      -0.058773
     93 C38         11.4940    -2.6140     0.3370 ca         1 CRO      -0.061984
     94 C42         12.7030    -3.2930     0.4150 ca         1 CRO      -0.062248
     95 C46         13.8810    -2.6370     0.0720 ca         1 CRO      -0.061984
     96 C50         13.8540    -1.2980    -0.3370 ca         1 CRO      -0.058773
     97 C54         12.5720     0.8690    -0.9070 c3         1 CRO      -0.017979
     98 C58         13.9290     1.5930    -0.9550 c3         1 CRO      -0.058380
     99 H23         12.2550     0.7920    -1.9410 hc         1 CRO       0.034972
    100 H41         14.4100     1.6100     0.0300 hc         1 CRO       0.023657
    101 H45         13.8080     2.6280    -1.2910 hc         1 CRO       0.023657
    102 H49         14.6140     1.1110    -1.6610 hc         1 CRO       0.023657
    103 H53         14.8010    -0.8390    -0.6060 ha         1 CRO       0.062571
    104 H57         12.7250    -4.3320     0.7310 ha         1 CRO       0.062269
    105 H61         14.8270    -3.1700     0.1160 ha         1 CRO       0.062279
    106 H65         10.4990    -0.8020    -0.1620 ha         1 CRO       0.062571
    107 H69         10.5640    -3.1180     0.5870 ha         1 CRO       0.062279
    108 C31        -10.3570    -1.4140    -3.0920 ca         1 CRO      -0.044104
    109 C35        -11.2640    -1.9250    -4.0400 ca         1 CRO      -0.058737
    110 C39        -11.3580    -3.2950    -4.2870 ca         1 CRO      -0.061983
    111 C43        -10.5370    -4.1820    -3.5990 ca         1 CRO      -0.062248
    112 C47         -9.6220    -3.6950    -2.6690 ca         1 CRO      -0.061983
    113 C51         -9.5270    -2.3220    -2.4220 ca         1 CRO      -0.058737
    114 C55        -10.2220     0.0940    -2.9450 c3         1 CRO      -0.004225
    115 C59         -8.8750     0.4930    -3.5920 c3         1 CRO      -0.057363
    116 H33        -10.9740     0.5300    -3.6150 hc         1 CRO       0.036050
    117 H42         -8.0170     0.1250    -3.0190 hc         1 CRO       0.023692
    118 H46         -8.7740     1.5760    -3.6980 hc         1 CRO       0.023692
    119 H50         -8.7900     0.0730    -4.6020 hc         1 CRO       0.023692
    120 H54         -8.7740    -1.9840    -1.7170 ha         1 CRO       0.062571
    121 H58        -10.6110    -5.2490    -3.7870 ha         1 CRO       0.062269
    122 H62         -8.9710    -4.3850    -2.1370 ha         1 CRO       0.062279
    123 H66        -11.9140    -1.2560    -4.6000 ha         1 CRO       0.062571
    124 H70        -12.0780    -3.6670    -5.0100 ha         1 CRO       0.062279
    125 C32        -13.5530    -1.4400    -1.5890 ca         1 CRO      -0.045151
    126 C36        -14.6880    -1.7740    -2.3530 ca         1 CRO      -0.058773
    127 C40        -15.1090    -3.1000    -2.5080 ca         1 CRO      -0.061984
    128 C44        -14.4130    -4.1320    -1.8920 ca         1 CRO      -0.062248
    129 C48        -13.3020    -3.8340    -1.1170 ca         1 CRO      -0.061984
    130 C52        -12.8840    -2.5060    -0.9610 ca         1 CRO      -0.058773
    131 C56        -13.1780     0.0290    -1.3410 c3         1 CRO      -0.017979
    132 C60        -13.5790     0.9980    -2.4580 c3         1 CRO      -0.058380
    133 H36        -13.8610     0.2830    -0.5120 hc         1 CRO       0.034972
    134 H43        -13.3430     2.0300    -2.1860 hc         1 CRO       0.023657
    135 H47        -14.6610     0.9930    -2.6270 hc         1 CRO       0.023657
    136 H51        -13.1040     0.7540    -3.4100 hc         1 CRO       0.023657
    137 H55        -12.0110    -2.3520    -0.3360 ha         1 CRO       0.062571
    138 H59        -14.7370    -5.1620    -2.0090 ha         1 CRO       0.062269
    139 H63        -12.7450    -4.6300    -0.6300 ha         1 CRO       0.062279
    140 H67        -15.2900    -1.0080    -2.8320 ha         1 CRO       0.062571
    141 H71        -15.9920    -3.3220    -3.1030 ha         1 CRO       0.062279
@<TRIPOS>BOND
     1    72    70 1   
     2    73    70 1   
     3    70    71 1   
     4    70    65 1   
     5    50    49 1   
     6    52    49 1   
     7    49    51 1   
     8    49    44 1   
     9    65    64 1   
    10    65    66 1   
    11    67    66 1   
    12    44    43 1   
    13    44    46 1   
    14    64    69 2   
    15    64    61 1   
    16    66    68 1   
    17    47    46 1   
    18    61    57 1   
    19    59    54 1   
    20    62    57 1   
    21    38    33 1   
    22    43    40 1   
    23    43    45 2   
    24    46    48 1   
    25    40    36 1   
    26    57    54 1   
    27    57    63 1   
    28    42    36 1   
    29    54    58 1   
    30    54    53 1   
    31    60    58 1   
    32    39    37 1   
    33    36    33 1   
    34    36    41 1   
    35    33    37 1   
    36    33    32 1   
    37    55    53 1   
    38    27    12 1   
    39    24    20 1   
    40    31    53 1   
    41    31    19 1   
    42    53    56 1   
    43    30    32 1   
    44    30    13 1   
    45    34    32 1   
    46    32    35 1   
    47    12    13 ar  
    48    12    11 ar  
    49    20    19 ar  
    50    20    21 ar  
    51    19    18 ar  
    52    13    14 ar  
    53    26    11 1   
    54    11    10 ar  
    55    25    21 1   
    56    21    16 ar  
    57    18    23 1   
    58    18    17 ar  
    59    14    28 1   
    60    14    15 ar  
    61    16    17 ar  
    62    16     1 1   
    63    10    15 ar  
    64    10     1 1   
    65    17    22 1   
    66    15    29 1   
    67     1     2 1   
    68     1     6 1   
    69     5     2 1   
    70     8     6 1   
    71     2     3 1   
    72     2     4 1   
    73     6     9 1   
    74     6     7 1   
    75    82    80 1   
    76    85    81 1   
    77    89    75 1   
    78    75    74 ar  
    79    75    76 ar  
    80    80    74 1   
    81    80    81 1   
    82    84    81 1   
    83    90    76 1   
    84    74    79 ar  
    85    76    77 ar  
    86    81    83 1   
    87    77    87 1   
    88    77    78 ar  
    89    79    78 ar  
    90    79    86 1   
    91    78    88 1   
    92    99    97 1   
    93   102    98 1   
    94   106    92 1   
    95    92    91 ar  
    96    92    93 ar  
    97    97    91 1   
    98    97    98 1   
    99   101    98 1   
   100   107    93 1   
   101    91    96 ar  
   102    93    94 ar  
   103    98   100 1   
   104    94   104 1   
   105    94    95 ar  
   106    96    95 ar  
   107    96   103 1   
   108    95   105 1   
   109   116   114 1   
   110   119   115 1   
   111   123   109 1   
   112   109   108 ar  
   113   109   110 ar  
   114   114   108 1   
   115   114   115 1   
   116   118   115 1   
   117   124   110 1   
   118   108   113 ar  
   119   110   111 ar  
   120   115   117 1   
   121   111   121 1   
   122   111   112 ar  
   123   113   112 ar  
   124   113   120 1   
   125   112   122 1   
   126   133   131 1   
   127   136   132 1   
   128   140   126 1   
   129   126   125 ar  
   130   126   127 ar  
   131   131   125 1   
   132   131   132 1   
   133   135   132 1   
   134   141   127 1   
   135   125   130 ar  
   136   127   128 ar  
   137   132   134 1   
   138   128   138 1   
   139   128   129 ar  
   140   130   129 ar  
   141   130   137 1   
   142   129   139 1   
   143    80    44 1   
   144    97    46 1   
   145   114    65 1   
   146   131    66 1   
@<TRIPOS>SUBSTRUCTURE
     1 VEA         1 TEMP              0 ****  ****    0 ROOT
