@<TRIPOS>MOLECULE
*****
  125   129     1     0     0
SMALL
gas


@<TRIPOS>ATOM
      1 C            1.6550     0.2440     4.7250 c3         1 VEA       0.014613
      2 C1           1.7520     1.5640     5.5370 c3         1 VEA      -0.051690
      3 H            2.6350     1.5630     6.1890 hc         1 VEA       0.024275
      4 H1           0.8780     1.7080     6.1830 hc         1 VEA       0.024275
      5 H2           1.8350     2.4440     4.8880 hc         1 VEA       0.024275
      6 C2           1.4120    -0.8810     5.7640 c3         1 VEA      -0.051690
      7 H3           2.1570    -0.8600     6.5680 hc         1 VEA       0.024275
      8 H4           1.4450    -1.8780     5.3100 hc         1 VEA       0.024275
      9 H5           0.4280    -0.7740     6.2390 hc         1 VEA       0.024275
     10 C3           3.0020     0.1120     3.9730 ca         1 VEA      -0.037775
     11 C4           3.2730     0.9470     2.8740 ca         1 VEA      -0.055555
     12 C5           4.4970     0.8880     2.2030 ca         1 VEA      -0.031489
     13 C6           5.4930     0.0040     2.6150 ca         1 VEA       0.075048
     14 C7           5.2450    -0.8370     3.6950 ca         1 VEA      -0.031489
     15 C8           4.0130    -0.7820     4.3670 ca         1 VEA      -0.055555
     16 C9           0.4500     0.2050     3.7520 ca         1 VEA      -0.037775
     17 C10         -0.5410     1.2000     3.7270 ca         1 VEA      -0.055555
     18 C11         -1.6380     1.1180     2.8540 ca         1 VEA      -0.031489
     19 C12         -1.7750     0.0380     1.9850 ca         1 VEA       0.075048
     20 C13         -0.7980    -0.9560     1.9940 ca         1 VEA      -0.031489
     21 C14          0.2970    -0.8760     2.8640 ca         1 VEA      -0.055555
     22 H6          -0.4940     2.0610     4.3870 ha         1 VEA       0.062690
     23 H7          -2.3670     1.9210     2.8900 ha         1 VEA       0.065049
     24 H8          -0.8890    -1.8060     1.3230 ha         1 VEA       0.065049
     25 H9           1.0370    -1.6750     2.8390 ha         1 VEA       0.062690
     26 H10          2.5270     1.6600     2.5270 ha         1 VEA       0.062690
     27 H11          4.6760     1.5460     1.3570 ha         1 VEA       0.065049
     28 H12          5.9840    -1.5500     4.0440 ha         1 VEA       0.065049
     29 H13          3.8760    -1.4530     5.2100 ha         1 VEA       0.062690
     30 O            6.6440     0.0600     1.8820 os         1 VEA      -0.343341
     31 O1          -2.7970    -0.1580     1.0940 os         1 VEA      -0.343341
     32 C15          7.7700    -0.6790     2.3580 c3         1 VEA       0.081550
     33 C16          8.9660    -0.3670     1.4540 c3         1 VEA       0.101772
     34 H14          7.5610    -1.7550     2.3190 h1         1 VEA       0.060074
     35 H15          8.0090    -0.4070     3.3940 h1         1 VEA       0.060074
     36 C17          9.3840     1.1040     1.5620 c3         1 VEA       0.084600
     37 O2          10.0710    -1.2080     1.8080 oh         1 VEA      -0.388266
     38 H16          8.7080    -0.5940     0.4120 h1         1 VEA       0.065010
     39 H17         10.8030    -0.9690     1.2040 ho         1 VEA       0.210686
     40 O3          10.3310     1.3670     0.5100 os         1 VEA      -0.312968
     41 H18          9.8700     1.2920     2.5270 h1         1 VEA       0.060189
     42 H19          8.5220     1.7680     1.4360 h1         1 VEA       0.060189
     43 C18         10.7420     2.6650     0.4350 c          1 VEA       0.263739
     44 C19         11.5840     2.8600    -0.8110 c3         1 VEA       0.042887
     45 O4          10.4470     3.5410     1.2360 o          1 VEA      -0.266308
     46 C20         13.0200     2.3450    -0.5900 c3         1 VEA      -0.034643
     47 H21         13.6900     3.2080    -0.4830 hc         1 VEA       0.028080
     48 H22         13.0980     1.7970     0.3580 hc         1 VEA       0.028080
     49 C21         11.5820     4.3300    -1.2350 c3         1 VEA      -0.053052
     50 H23         11.0780     2.3090    -1.6130 hc         1 VEA       0.040667
     51 H24         12.1390     4.4650    -2.1680 hc         1 VEA       0.023855
     52 H25         12.0370     4.9690    -0.4690 hc         1 VEA       0.023855
     53 H26         10.5590     4.6870    -1.3950 hc         1 VEA       0.023855
     54 C22         -3.8560     0.8060     1.1110 c3         1 VEA       0.081550
     55 C23         -4.9610     0.4090     0.1120 c3         1 VEA       0.101772
     56 H27         -3.4460     1.7820     0.8270 h1         1 VEA       0.060074
     57 H28         -4.2890     0.8530     2.1180 h1         1 VEA       0.060074
     58 C24         -5.9230     1.5970    -0.0660 c3         1 VEA       0.084611
     59 O5          -5.6300    -0.7620     0.6030 oh         1 VEA      -0.388266
     60 H29         -4.5260     0.1270    -0.8520 h1         1 VEA       0.065010
     61 H30         -6.5630    -0.5430     0.8070 ho         1 VEA       0.210686
     62 O6          -6.9140     1.3890    -1.0940 os         1 VEA      -0.312729
     63 H31         -5.3590     2.4840    -0.3750 h1         1 VEA       0.060189
     64 H32         -6.4210     1.8510     0.8790 h1         1 VEA       0.060189
     65 C25         -8.0450     0.7360    -0.7080 c          1 VEA       0.267479
     66 C26         -9.2070     0.8810    -1.7280 c3         1 VEA       0.060684
     67 C27        -10.5090     0.3920    -0.9650 c3         1 VEA      -0.031185
     68 H34        -10.7460     1.2000    -0.2530 hc         1 VEA       0.028391
     69 H35        -10.2330    -0.4170    -0.2870 hc         1 VEA       0.028391
     70 O7          -8.1220     0.1630     0.3740 o          1 VEA      -0.265950
     71 C28         -9.3520     2.4150    -1.9720 c3         1 VEA      -0.049575
     72 H37         -9.6830     2.9350    -1.0660 hc         1 VEA       0.024164
     73 H38        -10.0600     2.6380    -2.7720 hc         1 VEA       0.024164
     74 H39         -8.4080     2.8900    -2.2580 hc         1 VEA       0.024164
     75 C29         13.1830    -0.0120    -1.4870 ca         1 CRO      -0.045162
     76 C32         11.9430    -0.5330    -1.8900 ca         1 CRO      -0.058773
     77 C35         11.6030    -1.8640    -1.6310 ca         1 CRO      -0.061984
     78 C38         12.5020    -2.6980    -0.9730 ca         1 CRO      -0.062248
     79 C41         13.7360    -2.2000    -0.5670 ca         1 CRO      -0.061984
     80 C44         14.0710    -0.8660    -0.8140 ca         1 CRO      -0.058773
     81 C47         13.5110     1.4530    -1.7560 c3         1 CRO      -0.018269
     82 C50         15.0010     1.7030    -2.0270 c3         1 CRO      -0.058391
     83 H20         12.9990     1.7460    -2.6830 hc         1 CRO       0.034961
     84 H40         15.6130     1.5660    -1.1290 hc         1 CRO       0.023656
     85 H43         15.1550     2.7330    -2.3700 hc         1 CRO       0.023656
     86 H46         15.3790     1.0340    -2.8080 hc         1 CRO       0.023656
     87 H49         15.0390    -0.5100    -0.4710 ha         1 CRO       0.062571
     88 H52         12.2430    -3.7350    -0.7770 ha         1 CRO       0.062269
     89 H55         14.4430    -2.8490    -0.0560 ha         1 CRO       0.062279
     90 H58         11.2240     0.0930    -2.4130 ha         1 CRO       0.062571
     91 H61         10.6380    -2.2500    -1.9480 ha         1 CRO       0.062279
     92 C30         -8.9240    -1.3440    -3.1500 ca         1 CRO      -0.044104
     93 C33         -9.7310    -1.9720    -4.1180 ca         1 CRO      -0.058737
     94 C36         -9.7300    -3.3580    -4.2700 ca         1 CRO      -0.061983
     95 C39         -8.9130    -4.1420    -3.4630 ca         1 CRO      -0.062248
     96 C42         -8.0970    -3.5370    -2.5090 ca         1 CRO      -0.061983
     97 C45         -8.0970    -2.1470    -2.3560 ca         1 CRO      -0.058737
     98 C48         -8.8980     0.1750    -3.0960 c3         1 CRO      -0.004225
     99 C51         -7.6040     0.6320    -3.8050 c3         1 CRO      -0.057363
    100 H33         -9.6900     0.5180    -3.7720 hc         1 CRO       0.036050
    101 H41         -6.7020     0.2670    -3.3020 hc         1 CRO       0.023692
    102 H44         -7.5400     1.7200    -3.8880 hc         1 CRO       0.023692
    103 H47         -7.5710     0.2380    -4.8290 hc         1 CRO       0.023692
    104 H50         -7.4200    -1.7160    -1.6230 ha         1 CRO       0.062571
    105 H53         -8.9120    -5.2220    -3.5770 ha         1 CRO       0.062269
    106 H56         -7.4490    -4.1480    -1.8850 ha         1 CRO       0.062279
    107 H59        -10.3750    -1.3830    -4.7680 ha         1 CRO       0.062571
    108 H62        -10.3730    -3.8230    -5.0120 ha         1 CRO       0.062279
    109 C31        -12.2360    -1.4580    -1.7880 ca         1 CRO      -0.045151
    110 C34        -13.3860    -1.8410    -2.5060 ca         1 CRO      -0.058773
    111 C37        -13.7870    -3.1800    -2.6030 ca         1 CRO      -0.061984
    112 C40        -13.0540    -4.1770    -1.9720 ca         1 CRO      -0.062248
    113 C43        -11.9280    -3.8300    -1.2400 ca         1 CRO      -0.061984
    114 C46        -11.5320    -2.4900    -1.1430 ca         1 CRO      -0.058773
    115 C49        -11.8870     0.0300    -1.6120 c3         1 CRO      -0.017979
    116 C52        -12.2650     0.9120    -2.8070 c3         1 CRO      -0.058380
    117 H36        -12.6070     0.3220    -0.8290 hc         1 CRO       0.034972
    118 H42        -11.7870     0.5870    -3.7330 hc         1 CRO       0.023657
    119 H45        -12.0260     1.9600    -2.6180 hc         1 CRO       0.023657
    120 H48        -13.3450     0.9000    -2.9880 hc         1 CRO       0.023657
    121 H51        -10.6440    -2.3010    -0.5480 ha         1 CRO       0.062571
    122 H54        -13.3620    -5.2160    -2.0420 ha         1 CRO       0.062269
    123 H57        -11.3440    -4.5980    -0.7400 ha         1 CRO       0.062279
    124 H60        -14.0180    -1.1030    -2.9910 ha         1 CRO       0.062571
    125 H63        -14.6820    -3.4380    -3.1630 ha         1 CRO       0.062279
@<TRIPOS>BOND
     1    73    71 1   
     2    74    71 1   
     3    71    72 1   
     4    71    66 1   
     5    51    49 1   
     6    53    49 1   
     7    49    52 1   
     8    49    44 1   
     9    66    65 1   
    10    66    67 1   
    11    68    67 1   
    12    50    44 1   
    13    44    43 1   
    14    44    46 1   
    15    65    70 2   
    16    65    62 1   
    17    67    69 1   
    18    47    46 1   
    19    62    58 1   
    20    60    55 1   
    21    63    58 1   
    22    38    33 1   
    23    43    40 1   
    24    43    45 2   
    25    46    48 1   
    26    40    36 1   
    27    58    55 1   
    28    58    64 1   
    29    42    36 1   
    30    55    59 1   
    31    55    54 1   
    32    61    59 1   
    33    39    37 1   
    34    36    33 1   
    35    36    41 1   
    36    33    37 1   
    37    33    32 1   
    38    56    54 1   
    39    27    12 1   
    40    24    20 1   
    41    31    54 1   
    42    31    19 1   
    43    54    57 1   
    44    30    32 1   
    45    30    13 1   
    46    34    32 1   
    47    32    35 1   
    48    12    13 ar  
    49    12    11 ar  
    50    20    19 ar  
    51    20    21 ar  
    52    19    18 ar  
    53    13    14 ar  
    54    26    11 1   
    55    11    10 ar  
    56    25    21 1   
    57    21    16 ar  
    58    18    23 1   
    59    18    17 ar  
    60    14    28 1   
    61    14    15 ar  
    62    16    17 ar  
    63    16     1 1   
    64    10    15 ar  
    65    10     1 1   
    66    17    22 1   
    67    15    29 1   
    68     1     2 1   
    69     1     6 1   
    70     5     2 1   
    71     8     6 1   
    72     2     3 1   
    73     2     4 1   
    74     6     9 1   
    75     6     7 1   
    76    83    81 1   
    77    86    82 1   
    78    90    76 1   
    79    76    75 ar  
    80    76    77 ar  
    81    81    75 1   
    82    81    82 1   
    83    85    82 1   
    84    91    77 1   
    85    75    80 ar  
    86    77    78 ar  
    87    82    84 1   
    88    78    88 1   
    89    78    79 ar  
    90    80    79 ar  
    91    80    87 1   
    92    79    89 1   
    93   100    98 1   
    94   103    99 1   
    95   107    93 1   
    96    93    92 ar  
    97    93    94 ar  
    98    98    92 1   
    99    98    99 1   
   100   102    99 1   
   101   108    94 1   
   102    92    97 ar  
   103    94    95 ar  
   104    99   101 1   
   105    95   105 1   
   106    95    96 ar  
   107    97    96 ar  
   108    97   104 1   
   109    96   106 1   
   110   117   115 1   
   111   120   116 1   
   112   124   110 1   
   113   110   109 ar  
   114   110   111 ar  
   115   115   109 1   
   116   115   116 1   
   117   119   116 1   
   118   125   111 1   
   119   109   114 ar  
   120   111   112 ar  
   121   116   118 1   
   122   112   122 1   
   123   112   113 ar  
   124   114   113 ar  
   125   114   121 1   
   126   113   123 1   
   127    81    46 1   
   128    98    66 1   
   129   115    67 1   
@<TRIPOS>SUBSTRUCTURE
     1 VEA         1 TEMP              0 ****  ****    0 ROOT
