@<TRIPOS>MOLECULE
*****
  125   129     1     0     0
SMALL
gas


@<TRIPOS>ATOM
      1 C            1.8810     0.3110     4.7910 c3         1 VEA       0.014613
      2 C1           1.9790     1.6290     5.6070 c3         1 VEA      -0.051690
      3 H            2.8660     1.6300     6.2530 hc         1 VEA       0.024275
      4 H1           1.1090     1.7680     6.2600 hc         1 VEA       0.024275
      5 H2           2.0520     2.5110     4.9600 hc         1 VEA       0.024275
      6 C2           1.6470    -0.8170     5.8310 c3         1 VEA      -0.051690
      7 H3           2.3970    -0.7950     6.6310 hc         1 VEA       0.024275
      8 H4           1.6790    -1.8130     5.3750 hc         1 VEA       0.024275
      9 H5           0.6660    -0.7120     6.3130 hc         1 VEA       0.024275
     10 C3           3.2270     0.1840     4.0360 ca         1 VEA      -0.037775
     11 C4           3.4990     1.0320     2.9460 ca         1 VEA      -0.055555
     12 C5           4.7310     0.9910     2.2850 ca         1 VEA      -0.031489
     13 C6           5.7310     0.1100     2.6930 ca         1 VEA       0.075048
     14 C7           5.4760    -0.7500     3.7570 ca         1 VEA      -0.031489
     15 C8           4.2400    -0.7110     4.4210 ca         1 VEA      -0.055555
     16 C9           0.6680     0.2700     3.8280 ca         1 VEA      -0.037775
     17 C10         -0.3340     1.2540     3.8200 ca         1 VEA      -0.055555
     18 C11         -1.4460     1.1620     2.9680 ca         1 VEA      -0.031489
     19 C12         -1.5890     0.0800     2.1020 ca         1 VEA       0.075048
     20 C13         -0.5990    -0.9010     2.0910 ca         1 VEA      -0.031489
     21 C14          0.5130    -0.8100     2.9390 ca         1 VEA      -0.055555
     22 H6          -0.2850     2.1130     4.4830 ha         1 VEA       0.062690
     23 H7          -2.1850     1.9540     3.0190 ha         1 VEA       0.065049
     24 H8          -0.6940    -1.7530     1.4210 ha         1 VEA       0.065049
     25 H9           1.2590    -1.6020     2.9000 ha         1 VEA       0.062690
     26 H10          2.7520     1.7450     2.6040 ha         1 VEA       0.062690
     27 H11          4.9130     1.6630     1.4500 ha         1 VEA       0.065049
     28 H12          6.2180    -1.4620     4.1040 ha         1 VEA       0.065049
     29 H13          4.1020    -1.3930     5.2560 ha         1 VEA       0.062690
     30 O            6.8930     0.1960     1.9790 os         1 VEA      -0.343341
     31 O1          -2.6300    -0.1330     1.2360 os         1 VEA      -0.343341
     32 C15          7.9930    -0.6010     2.4140 c3         1 VEA       0.081550
     33 C16          9.2200    -0.2690     1.5570 c3         1 VEA       0.101772
     34 H14          7.7560    -1.6660     2.3030 h1         1 VEA       0.060074
     35 H15          8.2250    -0.4070     3.4700 h1         1 VEA       0.060074
     36 C17          9.6910     1.1740     1.7810 c3         1 VEA       0.084611
     37 O2          10.2810    -1.1750     1.8900 oh         1 VEA      -0.388266
     38 H16          8.9810    -0.4140     0.4990 h1         1 VEA       0.065010
     39 H17         11.0130    -0.9660     1.2770 ho         1 VEA       0.210686
     40 O3          10.8820     1.4240     1.0010 os         1 VEA      -0.312737
     41 H18          9.9870     1.3140     2.8260 h1         1 VEA       0.060189
     42 H19          8.8990     1.8980     1.5620 h1         1 VEA       0.060189
     43 C18         10.7400     2.1650    -0.1300 c          1 VEA       0.267174
     44 C19         12.0760     2.3740    -0.8630 c3         1 VEA       0.057307
     45 O4           9.6690     2.5950    -0.5440 o          1 VEA      -0.265963
     46 C20         13.2860     2.0800     0.0470 c3         1 VEA      -0.049870
     47 H20         13.2790     2.7360     0.9270 hc         1 VEA       0.024153
     48 H21         14.2350     2.2480    -0.4730 hc         1 VEA       0.024153
     49 H22         13.2890     1.0540     0.4270 hc         1 VEA       0.024153
     50 C21         12.1470     3.8790    -1.2140 c3         1 VEA      -0.049870
     51 H24         13.1220     4.1530    -1.6310 hc         1 VEA       0.024153
     52 H25         11.9860     4.4990    -0.3240 hc         1 VEA       0.024153
     53 H26         11.3790     4.1570    -1.9450 hc         1 VEA       0.024153
     54 C22         -3.6770     0.8450     1.2300 c3         1 VEA       0.081550
     55 C23         -4.8110     0.4110     0.2780 c3         1 VEA       0.101772
     56 H27         -3.2580     1.8000     0.8910 h1         1 VEA       0.060074
     57 H28         -4.0880     0.9480     2.2420 h1         1 VEA       0.060074
     58 C24         -5.7500     1.6070     0.0310 c3         1 VEA       0.084611
     59 O5          -5.4960    -0.7020     0.8730 oh         1 VEA      -0.388266
     60 H29         -4.4040     0.0470    -0.6710 h1         1 VEA       0.065010
     61 H30         -6.4520    -0.5010     0.9370 ho         1 VEA       0.210686
     62 O6          -6.7320     1.3810    -1.0040 os         1 VEA      -0.312729
     63 H31         -5.1640     2.4680    -0.3100 h1         1 VEA       0.060189
     64 H32         -6.2570     1.9120     0.9560 h1         1 VEA       0.060189
     65 C25         -7.8770     0.7510    -0.6210 c          1 VEA       0.267479
     66 C26         -9.0400     0.9240    -1.6370 c3         1 VEA       0.060684
     67 C27        -10.3530     0.4500    -0.8780 c3         1 VEA      -0.031185
     68 H34        -10.6040     1.2780    -0.1950 hc         1 VEA       0.028391
     69 H35        -10.0870    -0.3340    -0.1690 hc         1 VEA       0.028391
     70 O7          -7.9660     0.1800     0.4620 o          1 VEA      -0.265950
     71 C28         -9.1650     2.4640    -1.8560 c3         1 VEA      -0.049575
     72 H37         -9.4570     2.9780    -0.9320 hc         1 VEA       0.024164
     73 H38         -9.8980     2.7100    -2.6270 hc         1 VEA       0.024164
     74 H39         -8.2220     2.9260    -2.1660 hc         1 VEA       0.024164
     75 C29         11.8650     0.0110    -1.9100 ca         1 CRO      -0.044115
     76 C32         10.5890    -0.5620    -2.0300 ca         1 CRO      -0.058737
     77 C35         10.3890    -1.9220    -1.7880 ca         1 CRO      -0.061983
     78 C38         11.4600    -2.7300    -1.4190 ca         1 CRO      -0.062248
     79 C41         12.7340    -2.1800    -1.3020 ca         1 CRO      -0.061983
     80 C44         12.9360    -0.8200    -1.5500 ca         1 CRO      -0.058737
     81 C47         12.0410     1.5070    -2.1700 c3         1 CRO      -0.004518
     82 C50         13.2150     1.7610    -3.1320 c3         1 CRO      -0.057374
     83 H23         11.1510     1.8230    -2.7360 hc         1 CRO       0.036039
     84 H40         14.1870     1.5670    -2.6700 hc         1 CRO       0.023691
     85 H43         13.2140     2.7950    -3.4920 hc         1 CRO       0.023691
     86 H46         13.1360     1.1170    -4.0160 hc         1 CRO       0.023691
     87 H49         13.9440    -0.4230    -1.4540 ha         1 CRO       0.062571
     88 H52         11.3030    -3.7880    -1.2270 ha         1 CRO       0.062269
     89 H55         13.5730    -2.8110    -1.0200 ha         1 CRO       0.062279
     90 H58          9.7330     0.0500    -2.3120 ha         1 CRO       0.062571
     91 H61          9.3930    -2.3490    -1.8830 ha         1 CRO       0.062279
     92 C30         -8.8070    -1.2740    -3.1120 ca         1 CRO      -0.044104
     93 C33         -9.6320    -1.8590    -4.0920 ca         1 CRO      -0.058737
     94 C36         -9.6690    -3.2410    -4.2740 ca         1 CRO      -0.061983
     95 C39         -8.8680    -4.0640    -3.4900 ca         1 CRO      -0.062248
     96 C42         -8.0320    -3.5020    -2.5270 ca         1 CRO      -0.061983
     97 C45         -7.9970    -2.1160    -2.3400 ca         1 CRO      -0.058737
     98 C48         -8.7420     0.2410    -3.0200 c3         1 CRO      -0.004225
     99 C51         -7.4330     0.6780    -3.7150 c3         1 CRO      -0.057363
    100 H33         -9.5200     0.6230    -3.6920 hc         1 CRO       0.036050
    101 H41         -6.5440     0.2720    -3.2210 hc         1 CRO       0.023692
    102 H44         -7.3350     1.7650    -3.7690 hc         1 CRO       0.023692
    103 H47         -7.4100     0.3120    -4.7490 hc         1 CRO       0.023692
    104 H50         -7.3100    -1.7180    -1.5990 ha         1 CRO       0.062571
    105 H53         -8.8970    -5.1410    -3.6290 ha         1 CRO       0.062269
    106 H56         -7.3980    -4.1440    -1.9210 ha         1 CRO       0.062279
    107 H59        -10.2610    -1.2400    -4.7280 ha         1 CRO       0.062571
    108 H62        -10.3270    -3.6710    -5.0240 ha         1 CRO       0.062279
    109 C31        -12.0610    -1.4340    -1.6570 ca         1 CRO      -0.045151
    110 C34        -13.2340    -1.8410    -2.3230 ca         1 CRO      -0.058773
    111 C37        -13.6240    -3.1850    -2.3810 ca         1 CRO      -0.061984
    112 C40        -12.8570    -4.1620    -1.7620 ca         1 CRO      -0.062248
    113 C43        -11.7070    -3.7920    -1.0810 ca         1 CRO      -0.061984
    114 C46        -11.3200    -2.4470    -1.0230 ca         1 CRO      -0.058773
    115 C49        -11.7200     0.0610    -1.5280 c3         1 CRO      -0.017979
    116 C52        -12.0940     0.9000    -2.7550 c3         1 CRO      -0.058380
    117 H36        -12.4490     0.3740    -0.7610 hc         1 CRO       0.034972
    118 H42        -11.6200     0.5370    -3.6690 hc         1 CRO       0.023657
    119 H45        -11.8480     1.9530    -2.6080 hc         1 CRO       0.023657
    120 H48        -13.1750     0.8840    -2.9350 hc         1 CRO       0.023657
    121 H51        -10.4110    -2.2370    -0.4700 ha         1 CRO       0.062571
    122 H54        -13.1560    -5.2050    -1.8010 ha         1 CRO       0.062269
    123 H57        -11.0960    -4.5450    -0.5900 ha         1 CRO       0.062279
    124 H60        -13.8910    -1.1150    -2.7950 ha         1 CRO       0.062571
    125 H63        -14.5370    -3.4620    -2.9010 ha         1 CRO       0.062279
@<TRIPOS>BOND
     1    73    71 1   
     2    74    71 1   
     3    71    72 1   
     4    71    66 1   
     5    51    50 1   
     6    53    50 1   
     7    50    52 1   
     8    50    44 1   
     9    66    65 1   
    10    66    67 1   
    11    68    67 1   
    12    44    43 1   
    13    44    46 1   
    14    65    70 2   
    15    65    62 1   
    16    67    69 1   
    17    48    46 1   
    18    62    58 1   
    19    60    55 1   
    20    63    58 1   
    21    38    33 1   
    22    43    40 1   
    23    43    45 2   
    24    46    47 1   
    25    46    49 1   
    26    40    36 1   
    27    58    55 1   
    28    58    64 1   
    29    42    36 1   
    30    55    59 1   
    31    55    54 1   
    32    61    59 1   
    33    39    37 1   
    34    36    33 1   
    35    36    41 1   
    36    33    37 1   
    37    33    32 1   
    38    56    54 1   
    39    27    12 1   
    40    24    20 1   
    41    31    54 1   
    42    31    19 1   
    43    54    57 1   
    44    30    32 1   
    45    30    13 1   
    46    34    32 1   
    47    32    35 1   
    48    12    13 ar  
    49    12    11 ar  
    50    20    19 ar  
    51    20    21 ar  
    52    19    18 ar  
    53    13    14 ar  
    54    26    11 1   
    55    11    10 ar  
    56    25    21 1   
    57    21    16 ar  
    58    18    23 1   
    59    18    17 ar  
    60    14    28 1   
    61    14    15 ar  
    62    16    17 ar  
    63    16     1 1   
    64    10    15 ar  
    65    10     1 1   
    66    17    22 1   
    67    15    29 1   
    68     1     2 1   
    69     1     6 1   
    70     5     2 1   
    71     8     6 1   
    72     2     3 1   
    73     2     4 1   
    74     6     9 1   
    75     6     7 1   
    76    83    81 1   
    77    86    82 1   
    78    90    76 1   
    79    76    75 ar  
    80    76    77 ar  
    81    81    75 1   
    82    81    82 1   
    83    85    82 1   
    84    91    77 1   
    85    75    80 ar  
    86    77    78 ar  
    87    82    84 1   
    88    78    88 1   
    89    78    79 ar  
    90    80    79 ar  
    91    80    87 1   
    92    79    89 1   
    93   100    98 1   
    94   103    99 1   
    95   107    93 1   
    96    93    92 ar  
    97    93    94 ar  
    98    98    92 1   
    99    98    99 1   
   100   102    99 1   
   101   108    94 1   
   102    92    97 ar  
   103    94    95 ar  
   104    99   101 1   
   105    95   105 1   
   106    95    96 ar  
   107    97    96 ar  
   108    97   104 1   
   109    96   106 1   
   110   117   115 1   
   111   120   116 1   
   112   124   110 1   
   113   110   109 ar  
   114   110   111 ar  
   115   115   109 1   
   116   115   116 1   
   117   119   116 1   
   118   125   111 1   
   119   109   114 ar  
   120   111   112 ar  
   121   116   118 1   
   122   112   122 1   
   123   112   113 ar  
   124   114   113 ar  
   125   114   121 1   
   126   113   123 1   
   127    81    44 1   
   128    98    66 1   
   129   115    67 1   
@<TRIPOS>SUBSTRUCTURE
     1 VEA         1 TEMP              0 ****  ****    0 ROOT
