@<TRIPOS>MOLECULE
*****
 93 95 0 0 0
SMALL
GASTEIGER

@<TRIPOS>ATOM
      1 C          25.2083   23.9929   28.2992 C.3     1  VEA1        0.0151
      2 C1         25.5080   25.2891   29.0982 C.3     1  VEA1       -0.0517
      3 H          26.4512   25.1946   29.6423 H       1  VEA1        0.0241
      4 H1         24.7252   25.4962   29.8321 H       1  VEA1        0.0241
      5 H2         25.5945   26.1503   28.4312 H       1  VEA1        0.0241
      6 C2         24.9621   22.8738   29.3464 C.3     1  VEA1       -0.0517
      7 H3         25.7691   22.8271   30.0815 H       1  VEA1        0.0241
      8 H4         24.8769   21.8965   28.8651 H       1  VEA1        0.0241
      9 H5         24.0335   23.0588   29.8923 H       1  VEA1        0.0241
     10 C3         26.4377   23.7279   27.4047 C.ar    1  VEA1       -0.0372
     11 C4         26.6091   24.4826   26.2372 C.ar    1  VEA1       -0.0543
     12 C5         27.7289   24.3078   25.4273 C.ar    1  VEA1       -0.0197
     13 C6         28.7116   23.3859   25.7764 C.ar    1  VEA1        0.1206
     14 C7         28.5568   22.6241   26.9346 C.ar    1  VEA1       -0.0197
     15 C8         27.4319   22.7952   27.7405 C.ar    1  VEA1       -0.0543
     16 C9         23.9283   24.0884   27.4406 C.ar    1  VEA1       -0.0372
     17 C10        23.0084   25.1407   27.5612 C.ar    1  VEA1       -0.0543
     18 C11        21.8443   25.1679   26.7942 C.ar    1  VEA1       -0.0197
     19 C12        21.5715   24.1382   25.8904 C.ar    1  VEA1        0.1206
     20 C13        22.4784   23.0902   25.7619 C.ar    1  VEA1       -0.0197
     21 C14        23.6421   23.0648   26.5289 C.ar    1  VEA1       -0.0543
     22 H6         23.1710   25.9557   28.2590 H       1  VEA1        0.0622
     23 H7         21.1552   25.9975   26.9215 H       1  VEA1        0.0654
     24 H8         22.2746   22.2818   25.0640 H       1  VEA1        0.0654
     25 H9         24.3273   22.2284   26.4148 H       1  VEA1        0.0622
     26 H10        25.8696   25.2278   25.9538 H       1  VEA1        0.0622
     27 H11        27.8454   24.9098   24.5294 H       1  VEA1        0.0654
     28 H12        29.3114   21.8963   27.2212 H       1  VEA1        0.0654
     29 H13        27.3583   22.1937   28.6407 H       1  VEA1        0.0622
     30 O          29.8276   23.2797   24.9690 O.3     1  VEA1       -0.4893
     31 O1         20.4225   24.1032   25.1184 O.3     1  VEA1       -0.4893
     32 C15        31.1469   22.9997   25.5049 C.3     1  VEA1        0.1186
     33 C16        32.2115   23.5710   24.5424 C.3     1  VEA1        0.1230
     34 H14        31.2716   21.9202   25.6252 H       1  VEA1        0.0724
     35 H15        31.2469   23.4895   26.4784 H       1  VEA1        0.0724
     36 C17        31.8648   25.0468   24.2223 C.3     1  VEA1        0.1215
     37 O2         33.5039   23.4359   25.1491 O.3     1  VEA1       -0.3850
     38 H16        32.1967   22.9969   23.6123 H       1  VEA1        0.0662
     39 H17        34.1500   23.1800   24.4600 H       1  VEA1        0.2101
     40 O3         33.0186   25.8411   23.8338 O.3     1  VEA1       -0.4617
     41 H18        31.4179   25.5223   25.1004 H       1  VEA1        0.0725
     42 H19        31.1258   25.0532   23.4154 H       1  VEA1        0.0725
     43 C18        32.7649   27.0602   23.2991 C.2     1  VEA1        0.3100
     44 C19        33.9423   28.0157   23.4255 C.3     1  VEA1        0.0537
     45 O4         31.6812   27.4017   22.8616 O.2     1  VEA1       -0.2505
     46 C20        33.4756   29.4821   23.6532 C.3     1  VEA1       -0.0401
     47 C21        34.8193   27.9213   22.1607 C.3     1  VEA1       -0.0523
     48 H23        34.5502   27.7114   24.2819 H       1  VEA1        0.0411
     49 H24        35.1764   26.8982   22.0217 H       1  VEA1        0.0238
     50 H25        35.6890   28.5768   22.2453 H       1  VEA1        0.0238
     51 H26        34.2517   28.2111   21.2732 H       1  VEA1        0.0238
     52 C22        19.4188   25.1485   25.1304 C.3     1  VEA1        0.1186
     53 C23        18.2593   24.7522   24.1927 C.3     1  VEA1        0.1230
     54 H27        19.8800   26.0772   24.7826 H       1  VEA1        0.0724
     55 H28        19.0432   25.2817   26.1491 H       1  VEA1        0.0724
     56 C24        17.3384   25.9547   23.9153 C.3     1  VEA1        0.1215
     57 O5         17.4732   23.7203   24.7938 O.3     1  VEA1       -0.3850
     58 H29        18.6664   24.3905   23.2443 H       1  VEA1        0.0662
     59 H30        16.6500   23.6600   24.2700 H       1  VEA1        0.2101
     60 O6         16.2034   25.4969   23.1365 O.3     1  VEA1       -0.4617
     61 H31        17.8779   26.7207   23.3504 H       1  VEA1        0.0725
     62 H32        16.9772   26.3799   24.8567 H       1  VEA1        0.0725
     63 C25        15.2575   26.3946   22.7850 C.2     1  VEA1        0.3097
     64 C26        14.1250   25.7572   21.9997 C.3     1  VEA1        0.0508
     65 C27        12.8114   25.8243   22.8056 C.3     1  VEA1       -0.0525
     66 H33        12.9313   25.3225   23.7686 H       1  VEA1        0.0237
     67 H34        12.0021   25.3310   22.2626 H       1  VEA1        0.0237
     68 H35        12.5209   26.8610   22.9919 H       1  VEA1        0.0237
     69 O7         15.2859   27.5741   23.0826 O.2     1  VEA1       -0.2506
     70 C28        13.9655   26.4445   20.6278 C.3     1  VEA1       -0.0525
     71 H36        14.3617   24.7042   21.8245 H       1  VEA1        0.0408
     72 H37        13.7051   27.4990   20.7472 H       1  VEA1        0.0237
     73 H38        13.1798   25.9591   20.0445 H       1  VEA1        0.0237
     74 H39        14.8979   26.3825   20.0618 H       1  VEA1        0.0237
     75 C          31.2322   34.7215   24.6604 C.ar    1  UNL1       -0.0617
     76 H          31.1985   35.8083   24.6489 H       1  UNL1        0.0618
     77 C          32.4354   34.0568   24.4383 C.ar    1  UNL1       -0.0615
     78 C          30.0720   33.9898   24.8964 C.ar    1  UNL1       -0.0615
     79 H          30.6499   30.0960   25.5723 H       1  UNL1        0.0313
     80 H          33.3422   34.6270   24.2526 H       1  UNL1        0.0618
     81 H          29.1299   34.5050   25.0683 H       1  UNL1        0.0618
     82 C          32.4814   32.6631   24.4557 C.ar    1  UNL1       -0.0586
     83 C          30.1183   32.5971   24.9142 C.ar    1  UNL1       -0.0586
     84 C          31.3215   31.9176   24.7002 C.ar    1  UNL1       -0.0474
     85 H          33.4339   32.1749   24.2809 H       1  UNL1        0.0620
     86 H          29.2038   32.0383   25.1000 H       1  UNL1        0.0620
     87 C          31.3030   30.3886   24.7463 C.3     1  UNL1       -0.0277
     88 C          32.6579   29.6662   24.9631 C.3     1  UNL1       -0.0483
     89 H          30.8229   30.0071   23.8416 H       1  UNL1        0.0313
     90 H          32.4414   28.6881   25.3990 H       1  UNL1        0.0269
     91 H          33.2532   30.1980   25.7092 H       1  UNL1        0.0269
     92 H          32.8910   29.8114   22.7900 H       1  UNL1        0.0273
     93 H          34.3543   30.1297   23.6956 H       1  UNL1        0.0273
@<TRIPOS>BOND
     1    73    70    1
     2    74    70    1
     3    70    72    1
     4    70    64    1
     5    49    47    1
     6    51    47    1
     7    47    50    1
     8    47    44    1
     9    71    64    1
    10    64    63    1
    11    64    65    1
    12    67    65    1
    13    48    44    1
    14    44    43    1
    15    44    46    1
    16    63    69    2
    17    63    60    1
    18    65    68    1
    19    65    66    1
    20    60    56    1
    21    58    53    1
    22    61    56    1
    23    38    33    1
    24    43    40    1
    25    43    45    2
    26    40    36    1
    27    56    53    1
    28    56    62    1
    29    42    36    1
    30    53    57    1
    31    53    52    1
    32    59    57    1
    33    39    37    1
    34    36    33    1
    35    36    41    1
    36    33    37    1
    37    33    32    1
    38    54    52    1
    39    27    12    1
    40    24    20    1
    41    31    52    1
    42    31    19    1
    43    52    55    1
    44    30    32    1
    45    30    13    1
    46    34    32    1
    47    32    35    1
    48    12    13   ar
    49    12    11   ar
    50    20    19   ar
    51    20    21   ar
    52    19    18   ar
    53    13    14   ar
    54    26    11    1
    55    11    10   ar
    56    25    21    1
    57    21    16   ar
    58    18    23    1
    59    18    17   ar
    60    14    28    1
    61    14    15   ar
    62    16    17   ar
    63    16     1    1
    64    10    15   ar
    65    10     1    1
    66    17    22    1
    67    15    29    1
    68     1     2    1
    69     1     6    1
    70     5     2    1
    71     8     6    1
    72     2     3    1
    73     2     4    1
    74     6     9    1
    75     6     7    1
    76    75    76    1
    77    75    77   ar
    78    77    80    1
    79    78    75   ar
    80    79    87    1
    81    81    78    1
    82    82    77   ar
    83    82    85    1
    84    83    84   ar
    85    83    78   ar
    86    84    82   ar
    87    86    83    1
    88    87    84    1
    89    87    88    1
    90    87    89    1
    91    88    46    1
    92    88    90    1
    93    88    91    1
    94    46    92    1
    95    46    93    1
