@<TRIPOS>MOLECULE
*****
 125 129 0 0 0
SMALL
GASTEIGER

@<TRIPOS>ATOM
      1 C          -0.9230    0.2386    4.9188 C.3     1  VEA1        0.0151
      2 C1         -0.7257    1.5740    5.6814 C.3     1  VEA1       -0.0517
      3 H           0.1824    1.5472    6.2972 H       1  VEA1        0.0241
      4 H1         -1.5623    1.7831    6.3585 H       1  VEA1        0.0241
      5 H2         -0.6288    2.4275    4.9999 H       1  VEA1        0.0241
      6 C2         -1.2045   -0.8420    5.9952 C.3     1  VEA1       -0.0517
      7 H3         -0.4345   -0.8490    6.7758 H       1  VEA1        0.0241
      8 H4         -1.2501   -1.8499    5.5653 H       1  VEA1        0.0241
      9 H5         -2.1638   -0.6610    6.4964 H       1  VEA1        0.0241
     10 C3          0.3899   -0.0006    4.1322 C.ar    1  VEA1       -0.0372
     11 C4          0.6683    0.7701    2.9860 C.ar    1  VEA1       -0.0543
     12 C5          1.8427    0.5813    2.2526 C.ar    1  VEA1       -0.0197
     13 C6          2.7838   -0.3590    2.6611 C.ar    1  VEA1        0.1206
     14 C7          2.5302   -1.1338    3.7895 C.ar    1  VEA1       -0.0197
     15 C8          1.3470   -0.9540    4.5185 C.ar    1  VEA1       -0.0543
     16 C9         -2.1562    0.2362    3.9818 C.ar    1  VEA1       -0.0372
     17 C10        -3.1402    1.2390    4.0080 C.ar    1  VEA1       -0.0543
     18 C11        -4.2560    1.1901    3.1580 C.ar    1  VEA1       -0.0197
     19 C12        -4.4124    0.1353    2.2637 C.ar    1  VEA1        0.1206
     20 C13        -3.4427   -0.8637    2.2189 C.ar    1  VEA1       -0.0197
     21 C14        -2.3369   -0.8227    3.0718 C.ar    1  VEA1       -0.0543
     22 H6         -3.0672    2.0822    4.6894 H       1  VEA1        0.0622
     23 H7         -4.9775    1.9979    3.2163 H       1  VEA1        0.0654
     24 H8         -3.5521   -1.6895    1.5203 H       1  VEA1        0.0654
     25 H9         -1.6076   -1.6287    3.0115 H       1  VEA1        0.0622
     26 H10        -0.0405    1.5222    2.6435 H       1  VEA1        0.0622
     27 H11         2.0240    1.1806    1.3642 H       1  VEA1        0.0654
     28 H12         3.2253   -1.8999    4.1177 H       1  VEA1        0.0654
     29 H13         1.1977   -1.5837    5.3912 H       1  VEA1        0.0622
     30 O           3.8910   -0.4725    1.8675 O.3     1  VEA1       -0.4893
     31 O1         -5.4377   -0.0213    1.3756 O.3     1  VEA1       -0.4893
     32 C15         5.0934   -0.8299    2.5508 C.3     1  VEA1        0.1186
     33 C16         6.2887   -0.5915    1.6263 C.3     1  VEA1        0.1230
     34 H14         5.0718   -1.8911    2.8273 H       1  VEA1        0.0724
     35 H15         5.2169   -0.2393    3.4688 H       1  VEA1        0.0724
     36 C17         6.3646    0.8627    1.1475 C.3     1  VEA1        0.1215
     37 O2          7.4927   -0.9399    2.3227 O.3     1  VEA1       -0.3850
     38 H16         6.2188   -1.2507    0.7530 H       1  VEA1        0.0662
     39 H17         8.2320   -0.7098    1.7281 H       1  VEA1        0.2101
     40 O3          7.4934    0.9616    0.2569 O.3     1  VEA1       -0.4617
     41 H18         6.5406    1.5368    1.9932 H       1  VEA1        0.0725
     42 H19         5.4480    1.1468    0.6196 H       1  VEA1        0.0725
     43 C18         7.5947    2.1242   -0.4421 C.2     1  VEA1        0.3097
     44 C19         8.8261    2.1387   -1.3814 C.3     1  VEA1        0.0508
     45 O4          6.7698    3.0279   -0.3738 O.2     1  VEA1       -0.2506
     46 C20        10.0341    1.3990   -0.6767 C.3     1  VEA1       -0.0525
     47 H21        10.6382    2.1696   -0.1727 H       1  VEA1        0.0237
     48 H22         9.6885    0.8330    0.1931 H       1  VEA1        0.0237
     49 C21         9.2385    3.6422   -1.4439 C.3     1  VEA1       -0.0525
     50 H24        10.1844    3.7777   -1.9791 H       1  VEA1        0.0237
     51 H25         9.3647    4.0635   -0.4386 H       1  VEA1        0.0237
     52 H26         8.4749    4.2502   -1.9440 H       1  VEA1        0.0237
     53 C22        -6.6284    0.7414    1.6079 C.3     1  VEA1        0.1186
     54 C23        -7.6991    0.2548    0.6229 C.3     1  VEA1        0.1230
     55 H27        -6.4153    1.8010    1.4253 H       1  VEA1        0.0724
     56 H28        -6.9724    0.5900    2.6384 H       1  VEA1        0.0724
     57 C24        -8.9208    1.1750    0.6108 C.3     1  VEA1        0.1215
     58 O5         -8.1305   -1.0651    0.9947 O.3     1  VEA1       -0.3850
     59 H29        -7.2727    0.1672   -0.3834 H       1  VEA1        0.0662
     60 H30        -8.8043   -1.3287    0.3427 H       1  VEA1        0.2101
     61 O6         -9.7706    0.7569   -0.4774 O.3     1  VEA1       -0.4617
     62 H31        -8.6195    2.2147    0.4407 H       1  VEA1        0.0725
     63 H32        -9.4732    1.0870    1.5537 H       1  VEA1        0.0725
     64 C25       -10.9478    1.4389   -0.5657 C.2     1  VEA1        0.3097
     65 C26       -11.6729    1.0735   -1.8537 C.3     1  VEA1        0.0508
     66 C27       -13.1743    0.8875   -1.5533 C.3     1  VEA1       -0.0525
     67 H34       -13.2844    0.3769   -0.5856 H       1  VEA1        0.0237
     68 H35       -13.6017    1.8880   -1.3925 H       1  VEA1        0.0237
     69 O7        -11.3264    2.2840    0.2333 O.2     1  VEA1       -0.2506
     70 C28       -11.3590    2.1900   -2.8508 C.3     1  VEA1       -0.0525
     71 H36       -11.2460    0.1364   -2.2193 H       1  VEA1        0.0408
     72 H37       -11.9269    3.0989   -2.6237 H       1  VEA1        0.0237
     73 H38       -11.5793    1.8964   -3.8785 H       1  VEA1        0.0237
     74 H39       -10.2958    2.4561   -2.8218 H       1  VEA1        0.0237
     75 C           7.8657    0.2428   -3.0033 C.ar    1  CRO01      -0.0476
     76 C1          6.6246   -0.1839   -2.4976 C.ar    1  CRO01      -0.0586
     77 C2          6.1937   -1.5060   -2.6436 C.ar    1  CRO01      -0.0615
     78 C3          6.9836   -2.4263   -3.3235 C.ar    1  CRO01      -0.0617
     79 C4          8.1921   -2.0177   -3.8754 C.ar    1  CRO01      -0.0615
     80 C5          8.6206   -0.6948   -3.7281 C.ar    1  CRO01      -0.0586
     81 C6          8.3010    1.7005   -2.8191 C.3     1  CRO01      -0.0305
     82 C7          9.1608    2.2137   -3.9970 C.3     1  CRO01      -0.0613
     83 H1          7.3596    2.2574   -2.9650 H       1  CRO01       0.0311
     84 H2         10.2022    1.8907   -3.9393 H       1  CRO01       0.0233
     85 H3          9.1599    3.3076   -4.0421 H       1  CRO01       0.0233
     86 H4          8.7568    1.8720   -4.9574 H       1  CRO01       0.0233
     87 H5          9.5653   -0.4232   -4.1920 H       1  CRO01       0.0620
     88 H6          6.6535   -3.4552   -3.4365 H       1  CRO01       0.0618
     89 H7          8.8096   -2.7276   -4.4201 H       1  CRO01       0.0618
     90 H8          5.9622    0.5156   -1.9920 H       1  CRO01       0.0620
     91 H9          5.2351   -1.8128   -2.2328 H       1  CRO01       0.0618
     92 C          11.0701   -0.9339   -0.9780 C.ar    1  CRO11      -0.0476
     93 C1          9.8879   -1.6157   -0.6314 C.ar    1  CRO11      -0.0586
     94 C2          9.9008   -2.9424   -0.1953 C.ar    1  CRO11      -0.0615
     95 C3         11.1028   -3.6323   -0.1159 C.ar    1  CRO11      -0.0617
     96 C4         12.2851   -2.9929   -0.4748 C.ar    1  CRO11      -0.0615
     97 C5         12.2690   -1.6596   -0.9030 C.ar    1  CRO11      -0.0586
     98 C6         11.0028    0.5094   -1.4968 C.3     1  CRO11      -0.0305
     99 C7         12.3684    1.2139   -1.5851 C.3     1  CRO11      -0.0613
    100 H1         10.6634    0.4233   -2.5226 H       1  CRO11       0.0311
    101 H2         12.8682    1.2442   -0.6101 H       1  CRO11       0.0233
    102 H3         12.2529    2.2441   -1.9395 H       1  CRO11       0.0233
    103 H4         13.0329    0.7095   -2.2948 H       1  CRO11       0.0233
    104 H5         13.2190   -1.2141   -1.1832 H       1  CRO11       0.0620
    105 H6         11.1167   -4.6671    0.2139 H       1  CRO11       0.0618
    106 H7         13.2266   -3.5341   -0.4292 H       1  CRO11       0.0618
    107 H8          8.9217   -1.1262   -0.7125 H       1  CRO11       0.0620
    108 H9          8.9675   -3.4339    0.0672 H       1  CRO11       0.0618
    109 C         -14.1586   -1.3470   -2.4079 C.ar    1  CRO21      -0.0476
    110 C1        -15.4146   -1.9485   -2.2115 C.ar    1  CRO21      -0.0586
    111 C2        -15.5404   -3.3346   -2.0974 C.ar    1  CRO21      -0.0615
    112 C3        -14.4116   -4.1438   -2.1745 C.ar    1  CRO21      -0.0617
    113 C4        -13.1600   -3.5663   -2.3717 C.ar    1  CRO21      -0.0615
    114 C5        -13.0348   -2.1791   -2.4945 C.ar    1  CRO21      -0.0586
    115 C6        -14.0812    0.1645   -2.5827 C.3     1  CRO21      -0.0305
    116 C7        -13.8285    0.5104   -4.0481 C.3     1  CRO21      -0.0613
    117 H1        -15.0893    0.5467   -2.3620 H       1  CRO21       0.0311
    118 H2        -12.8680    0.1230   -4.4025 H       1  CRO21       0.0233
    119 H3        -13.8572    1.5935   -4.2032 H       1  CRO21       0.0233
    120 H4        -14.6038    0.0723   -4.6880 H       1  CRO21       0.0233
    121 H5        -12.0477   -1.7715   -2.6809 H       1  CRO21       0.0620
    122 H6        -14.5077   -5.2228   -2.0895 H       1  CRO21       0.0618
    123 H7        -12.2785   -4.1985   -2.4419 H       1  CRO21       0.0618
    124 H8        -16.3151   -1.3395   -2.1595 H       1  CRO21       0.0620
    125 H9        -16.5213   -3.7806   -1.9555 H       1  CRO21       0.0618
@<TRIPOS>BOND
     1    73    70    1
     2    74    70    1
     3    70    72    1
     4    70    65    1
     5    50    49    1
     6    52    49    1
     7    49    51    1
     8    49    44    1
     9    71    65    1
    10    65    64    1
    11    65    66    1
    12    67    66    1
    13    44    43    1
    14    44    46    1
    15    64    69    2
    16    64    61    1
    17    66    68    1
    18    47    46    1
    19    61    57    1
    20    59    54    1
    21    62    57    1
    22    38    33    1
    23    43    40    1
    24    43    45    2
    25    46    48    1
    26    40    36    1
    27    57    54    1
    28    57    63    1
    29    42    36    1
    30    54    58    1
    31    54    53    1
    32    60    58    1
    33    39    37    1
    34    36    33    1
    35    36    41    1
    36    33    37    1
    37    33    32    1
    38    55    53    1
    39    27    12    1
    40    24    20    1
    41    31    53    1
    42    31    19    1
    43    53    56    1
    44    30    32    1
    45    30    13    1
    46    34    32    1
    47    32    35    1
    48    12    13   ar
    49    12    11   ar
    50    20    19   ar
    51    20    21   ar
    52    19    18   ar
    53    13    14   ar
    54    26    11    1
    55    11    10   ar
    56    25    21    1
    57    21    16   ar
    58    18    23    1
    59    18    17   ar
    60    14    28    1
    61    14    15   ar
    62    16    17   ar
    63    16     1    1
    64    10    15   ar
    65    10     1    1
    66    17    22    1
    67    15    29    1
    68     1     2    1
    69     1     6    1
    70     5     2    1
    71     8     6    1
    72     2     3    1
    73     2     4    1
    74     6     9    1
    75     6     7    1
    76    83    81    1
    77    86    82    1
    78    90    76    1
    79    76    75   ar
    80    76    77   ar
    81    81    75    1
    82    81    82    1
    83    85    82    1
    84    91    77    1
    85    75    80   ar
    86    77    78   ar
    87    82    84    1
    88    78    88    1
    89    78    79   ar
    90    80    79   ar
    91    80    87    1
    92    79    89    1
    93   100    98    1
    94   103    99    1
    95   107    93    1
    96    93    92   ar
    97    93    94   ar
    98    98    92    1
    99    98    99    1
   100   102    99    1
   101   108    94    1
   102    92    97   ar
   103    94    95   ar
   104    99   101    1
   105    95   105    1
   106    95    96   ar
   107    97    96   ar
   108    97   104    1
   109    96   106    1
   110   117   115    1
   111   120   116    1
   112   124   110    1
   113   110   109   ar
   114   110   111   ar
   115   115   109    1
   116   115   116    1
   117   119   116    1
   118   125   111    1
   119   109   114   ar
   120   111   112   ar
   121   116   118    1
   122   112   122    1
   123   112   113   ar
   124   114   113   ar
   125   114   121    1
   126   113   123    1
   127    81    44    1
   128    98    46    1
   129   115    66    1
