@<TRIPOS>MOLECULE
*****
 125 129 0 0 0
SMALL
GASTEIGER

@<TRIPOS>ATOM
      1 C           1.6552    0.2445    4.7247 C.3     1  VEA1        0.0151
      2 C1          1.7525    1.5637    5.5371 C.3     1  VEA1       -0.0517
      3 H           2.6350    1.5629    6.1895 H       1  VEA1        0.0241
      4 H1          0.8783    1.7079    6.1831 H       1  VEA1        0.0241
      5 H2          1.8345    2.4441    4.8882 H       1  VEA1        0.0241
      6 C2          1.4117   -0.8811    5.7641 C.3     1  VEA1       -0.0517
      7 H3          2.1570   -0.8599    6.5682 H       1  VEA1        0.0241
      8 H4          1.4449   -1.8784    5.3098 H       1  VEA1        0.0241
      9 H5          0.4284   -0.7739    6.2394 H       1  VEA1        0.0241
     10 C3          3.0023    0.1116    3.9733 C.ar    1  VEA1       -0.0372
     11 C4          3.2726    0.9472    2.8738 C.ar    1  VEA1       -0.0543
     12 C5          4.4974    0.8879    2.2032 C.ar    1  VEA1       -0.0197
     13 C6          5.4933    0.0044    2.6151 C.ar    1  VEA1        0.1206
     14 C7          5.2446   -0.8368    3.6948 C.ar    1  VEA1       -0.0197
     15 C8          4.0133   -0.7822    4.3666 C.ar    1  VEA1       -0.0543
     16 C9          0.4495    0.2051    3.7525 C.ar    1  VEA1       -0.0372
     17 C10        -0.5415    1.1997    3.7267 C.ar    1  VEA1       -0.0543
     18 C11        -1.6379    1.1184    2.8545 C.ar    1  VEA1       -0.0197
     19 C12        -1.7750    0.0379    1.9854 C.ar    1  VEA1        0.1206
     20 C13        -0.7977   -0.9555    1.9943 C.ar    1  VEA1       -0.0197
     21 C14         0.2973   -0.8765    2.8640 C.ar    1  VEA1       -0.0543
     22 H6         -0.4937    2.0613    4.3870 H       1  VEA1        0.0622
     23 H7         -2.3669    1.9206    2.8897 H       1  VEA1        0.0654
     24 H8         -0.8890   -1.8057    1.3226 H       1  VEA1        0.0654
     25 H9          1.0366   -1.6752    2.8392 H       1  VEA1        0.0622
     26 H10         2.5266    1.6601    2.5270 H       1  VEA1        0.0622
     27 H11         4.6758    1.5464    1.3567 H       1  VEA1        0.0654
     28 H12         5.9845   -1.5495    4.0444 H       1  VEA1        0.0654
     29 H13         3.8757   -1.4530    5.2104 H       1  VEA1        0.0622
     30 O           6.6436    0.0599    1.8824 O.3     1  VEA1       -0.4893
     31 O1         -2.7973   -0.1579    1.0943 O.3     1  VEA1       -0.4893
     32 C15         7.7697   -0.6789    2.3582 C.3     1  VEA1        0.1186
     33 C16         8.9662   -0.3669    1.4539 C.3     1  VEA1        0.1230
     34 H14         7.5610   -1.7552    2.3192 H       1  VEA1        0.0724
     35 H15         8.0090   -0.4070    3.3945 H       1  VEA1        0.0724
     36 C17         9.3845    1.1041    1.5622 C.3     1  VEA1        0.1215
     37 O2         10.0714   -1.2075    1.8083 O.3     1  VEA1       -0.3850
     38 H16         8.7082   -0.5942    0.4124 H       1  VEA1        0.0662
     39 H17        10.8027   -0.9692    1.2045 H       1  VEA1        0.2101
     40 O3         10.3308    1.3675    0.5096 O.3     1  VEA1       -0.4617
     41 H18         9.8699    1.2925    2.5269 H       1  VEA1        0.0725
     42 H19         8.5220    1.7676    1.4357 H       1  VEA1        0.0725
     43 C18        10.7419    2.6649    0.4354 C.2     1  VEA1        0.3097
     44 C19        11.5844    2.8601   -0.8111 C.3     1  VEA1        0.0508
     45 O4         10.4475    3.5414    1.2355 O.2     1  VEA1       -0.2506
     46 C20        13.0200    2.3454   -0.5901 C.3     1  VEA1       -0.0525
     47 H21        13.6902    3.2084   -0.4828 H       1  VEA1        0.0237
     48 H22        13.0975    1.7973    0.3585 H       1  VEA1        0.0237
     49 C21        11.5823    4.3297   -1.2346 C.3     1  VEA1       -0.0525
     50 H23        11.0780    2.3092   -1.6125 H       1  VEA1        0.0408
     51 H24        12.1390    4.4649   -2.1678 H       1  VEA1        0.0237
     52 H25        12.0370    4.9689   -0.4694 H       1  VEA1        0.0237
     53 H26        10.5592    4.6869   -1.3951 H       1  VEA1        0.0237
     54 C22        -3.8559    0.8057    1.1109 C.3     1  VEA1        0.1186
     55 C23        -4.9608    0.4087    0.1124 C.3     1  VEA1        0.1230
     56 H27        -3.4459    1.7823    0.8268 H       1  VEA1        0.0724
     57 H28        -4.2893    0.8530    2.1181 H       1  VEA1        0.0724
     58 C24        -5.9233    1.5972   -0.0660 C.3     1  VEA1        0.1215
     59 O5         -5.6299   -0.7620    0.6029 O.3     1  VEA1       -0.3850
     60 H29        -4.5261    0.1268   -0.8523 H       1  VEA1        0.0662
     61 H30        -6.5629   -0.5429    0.8070 H       1  VEA1        0.2101
     62 O6         -6.9138    1.3892   -1.0938 O.3     1  VEA1       -0.4617
     63 H31        -5.3589    2.4841   -0.3746 H       1  VEA1        0.0725
     64 H32        -6.4207    1.8509    0.8789 H       1  VEA1        0.0725
     65 C25        -8.0448    0.7358   -0.7084 C.2     1  VEA1        0.3097
     66 C26        -9.2069    0.8814   -1.7277 C.3     1  VEA1        0.0508
     67 C27       -10.5093    0.3918   -0.9654 C.3     1  VEA1       -0.0525
     68 H34       -10.7458    1.2001   -0.2534 H       1  VEA1        0.0237
     69 H35       -10.2332   -0.4167   -0.2875 H       1  VEA1        0.0237
     70 O7         -8.1224    0.1629    0.3742 O.2     1  VEA1       -0.2506
     71 C28        -9.3519    2.4148   -1.9717 C.3     1  VEA1       -0.0525
     72 H37        -9.6833    2.9354   -1.0657 H       1  VEA1        0.0237
     73 H38       -10.0599    2.6377   -2.7725 H       1  VEA1        0.0237
     74 H39        -8.4077    2.8896   -2.2579 H       1  VEA1        0.0237
     75 C          13.1828   -0.0117   -1.4872 C.ar    1  CRO01      -0.0476
     76 C1         11.9426   -0.5334   -1.8901 C.ar    1  CRO01      -0.0586
     77 C2         11.6034   -1.8637   -1.6312 C.ar    1  CRO01      -0.0615
     78 C3         12.5022   -2.6976   -0.9728 C.ar    1  CRO01      -0.0617
     79 C4         13.7365   -2.1995   -0.5670 C.ar    1  CRO01      -0.0615
     80 C5         14.0708   -0.8656   -0.8141 C.ar    1  CRO01      -0.0586
     81 C6         13.5107    1.4526   -1.7561 C.3     1  CRO01      -0.0305
     82 C7         15.0011    1.7032   -2.0271 C.3     1  CRO01      -0.0613
     83 H1         12.9987    1.7455   -2.6832 H       1  CRO01       0.0311
     84 H2         15.6131    1.5656   -1.1295 H       1  CRO01       0.0233
     85 H3         15.1549    2.7327   -2.3703 H       1  CRO01       0.0233
     86 H4         15.3793    1.0339   -2.8076 H       1  CRO01       0.0233
     87 H5         15.0391   -0.5101   -0.4715 H       1  CRO01       0.0620
     88 H6         12.2426   -3.7348   -0.7773 H       1  CRO01       0.0618
     89 H7         14.4431   -2.8491   -0.0564 H       1  CRO01       0.0618
     90 H8         11.2237    0.0931   -2.4127 H       1  CRO01       0.0620
     91 H9         10.6379   -2.2501   -1.9476 H       1  CRO01       0.0618
     92 C          -8.9244   -1.3437   -3.1502 C.ar    1  CRO11      -0.0476
     93 C1         -9.7310   -1.9718   -4.1183 C.ar    1  CRO11      -0.0586
     94 C2         -9.7302   -3.3585   -4.2696 C.ar    1  CRO11      -0.0615
     95 C3         -8.9126   -4.1421   -3.4629 C.ar    1  CRO11      -0.0617
     96 C4         -8.0965   -3.5370   -2.5091 C.ar    1  CRO11      -0.0615
     97 C5         -8.0966   -2.1470   -2.3556 C.ar    1  CRO11      -0.0586
     98 C6         -8.8979    0.1749   -3.0956 C.3     1  CRO11      -0.0305
     99 C7         -7.6041    0.6317   -3.8046 C.3     1  CRO11      -0.0613
    100 H1         -9.6896    0.5178   -3.7716 H       1  CRO11       0.0311
    101 H2         -6.7025    0.2671   -3.3019 H       1  CRO11       0.0233
    102 H3         -7.5402    1.7195   -3.8881 H       1  CRO11       0.0233
    103 H4         -7.5705    0.2381   -4.8285 H       1  CRO11       0.0233
    104 H5         -7.4200   -1.7157   -1.6234 H       1  CRO11       0.0620
    105 H6         -8.9120   -5.2221   -3.5774 H       1  CRO11       0.0618
    106 H7         -7.4491   -4.1479   -1.8852 H       1  CRO11       0.0618
    107 H8        -10.3750   -1.3827   -4.7680 H       1  CRO11       0.0620
    108 H9        -10.3733   -3.8226   -5.0122 H       1  CRO11       0.0618
    109 C         -12.2359   -1.4585   -1.7882 C.ar    1  CRO21      -0.0476
    110 C1        -13.3863   -1.8415   -2.5065 C.ar    1  CRO21      -0.0586
    111 C2        -13.7868   -3.1802   -2.6034 C.ar    1  CRO21      -0.0615
    112 C3        -13.0543   -4.1767   -1.9725 C.ar    1  CRO21      -0.0617
    113 C4        -11.9276   -3.8301   -1.2405 C.ar    1  CRO21      -0.0615
    114 C5        -11.5317   -2.4901   -1.1430 C.ar    1  CRO21      -0.0586
    115 C6        -11.8866    0.0300   -1.6119 C.3     1  CRO21      -0.0305
    116 C7        -12.2648    0.9123   -2.8067 C.3     1  CRO21      -0.0613
    117 H1        -12.6068    0.3215   -0.8286 H       1  CRO21       0.0311
    118 H2        -11.7867    0.5869   -3.7327 H       1  CRO21       0.0233
    119 H3        -12.0258    1.9604   -2.6176 H       1  CRO21       0.0233
    120 H4        -13.3450    0.8997   -2.9878 H       1  CRO21       0.0233
    121 H5        -10.6444   -2.3008   -0.5485 H       1  CRO21       0.0620
    122 H6        -13.3621   -5.2156   -2.0423 H       1  CRO21       0.0618
    123 H7        -11.3438   -4.5983   -0.7398 H       1  CRO21       0.0618
    124 H8        -14.0180   -1.1031   -2.9913 H       1  CRO21       0.0620
    125 H9        -14.6818   -3.4384   -3.1630 H       1  CRO21       0.0618
@<TRIPOS>BOND
     1    73    71    1
     2    74    71    1
     3    71    72    1
     4    71    66    1
     5    51    49    1
     6    53    49    1
     7    49    52    1
     8    49    44    1
     9    66    65    1
    10    66    67    1
    11    68    67    1
    12    50    44    1
    13    44    43    1
    14    44    46    1
    15    65    70    2
    16    65    62    1
    17    67    69    1
    18    47    46    1
    19    62    58    1
    20    60    55    1
    21    63    58    1
    22    38    33    1
    23    43    40    1
    24    43    45    2
    25    46    48    1
    26    40    36    1
    27    58    55    1
    28    58    64    1
    29    42    36    1
    30    55    59    1
    31    55    54    1
    32    61    59    1
    33    39    37    1
    34    36    33    1
    35    36    41    1
    36    33    37    1
    37    33    32    1
    38    56    54    1
    39    27    12    1
    40    24    20    1
    41    31    54    1
    42    31    19    1
    43    54    57    1
    44    30    32    1
    45    30    13    1
    46    34    32    1
    47    32    35    1
    48    12    13   ar
    49    12    11   ar
    50    20    19   ar
    51    20    21   ar
    52    19    18   ar
    53    13    14   ar
    54    26    11    1
    55    11    10   ar
    56    25    21    1
    57    21    16   ar
    58    18    23    1
    59    18    17   ar
    60    14    28    1
    61    14    15   ar
    62    16    17   ar
    63    16     1    1
    64    10    15   ar
    65    10     1    1
    66    17    22    1
    67    15    29    1
    68     1     2    1
    69     1     6    1
    70     5     2    1
    71     8     6    1
    72     2     3    1
    73     2     4    1
    74     6     9    1
    75     6     7    1
    76    83    81    1
    77    86    82    1
    78    90    76    1
    79    76    75   ar
    80    76    77   ar
    81    81    75    1
    82    81    82    1
    83    85    82    1
    84    91    77    1
    85    75    80   ar
    86    77    78   ar
    87    82    84    1
    88    78    88    1
    89    78    79   ar
    90    80    79   ar
    91    80    87    1
    92    79    89    1
    93   100    98    1
    94   103    99    1
    95   107    93    1
    96    93    92   ar
    97    93    94   ar
    98    98    92    1
    99    98    99    1
   100   102    99    1
   101   108    94    1
   102    92    97   ar
   103    94    95   ar
   104    99   101    1
   105    95   105    1
   106    95    96   ar
   107    97    96   ar
   108    97   104    1
   109    96   106    1
   110   117   115    1
   111   120   116    1
   112   124   110    1
   113   110   109   ar
   114   110   111   ar
   115   115   109    1
   116   115   116    1
   117   119   116    1
   118   125   111    1
   119   109   114   ar
   120   111   112   ar
   121   116   118    1
   122   112   122    1
   123   112   113   ar
   124   114   113   ar
   125   114   121    1
   126   113   123    1
   127    81    46    1
   128    98    66    1
   129   115    67    1
