@<TRIPOS>MOLECULE
*****
  125   129     1     0     0
SMALL
gas


@<TRIPOS>ATOM
      1 C           -0.9230     0.2390     4.9190 c3         1 VEA       0.014613
      2 C1          -0.7260     1.5740     5.6810 c3         1 VEA      -0.051690
      3 H            0.1820     1.5470     6.2970 hc         1 VEA       0.024275
      4 H1          -1.5620     1.7830     6.3590 hc         1 VEA       0.024275
      5 H2          -0.6290     2.4280     5.0000 hc         1 VEA       0.024275
      6 C2          -1.2040    -0.8420     5.9950 c3         1 VEA      -0.051690
      7 H3          -0.4340    -0.8490     6.7760 hc         1 VEA       0.024275
      8 H4          -1.2500    -1.8500     5.5650 hc         1 VEA       0.024275
      9 H5          -2.1640    -0.6610     6.4960 hc         1 VEA       0.024275
     10 C3           0.3900    -0.0010     4.1320 ca         1 VEA      -0.037775
     11 C4           0.6680     0.7700     2.9860 ca         1 VEA      -0.055555
     12 C5           1.8430     0.5810     2.2530 ca         1 VEA      -0.031489
     13 C6           2.7840    -0.3590     2.6610 ca         1 VEA       0.075048
     14 C7           2.5300    -1.1340     3.7890 ca         1 VEA      -0.031489
     15 C8           1.3470    -0.9540     4.5190 ca         1 VEA      -0.055555
     16 C9          -2.1560     0.2360     3.9820 ca         1 VEA      -0.037775
     17 C10         -3.1400     1.2390     4.0080 ca         1 VEA      -0.055555
     18 C11         -4.2560     1.1900     3.1580 ca         1 VEA      -0.031489
     19 C12         -4.4120     0.1350     2.2640 ca         1 VEA       0.075048
     20 C13         -3.4430    -0.8640     2.2190 ca         1 VEA      -0.031489
     21 C14         -2.3370    -0.8230     3.0720 ca         1 VEA      -0.055555
     22 H6          -3.0670     2.0820     4.6890 ha         1 VEA       0.062690
     23 H7          -4.9780     1.9980     3.2160 ha         1 VEA       0.065049
     24 H8          -3.5520    -1.6900     1.5200 ha         1 VEA       0.065049
     25 H9          -1.6080    -1.6290     3.0110 ha         1 VEA       0.062690
     26 H10         -0.0410     1.5220     2.6430 ha         1 VEA       0.062690
     27 H11          2.0240     1.1810     1.3640 ha         1 VEA       0.065049
     28 H12          3.2250    -1.9000     4.1180 ha         1 VEA       0.065049
     29 H13          1.1980    -1.5840     5.3910 ha         1 VEA       0.062690
     30 O            3.8910    -0.4720     1.8670 os         1 VEA      -0.343341
     31 O1          -5.4380    -0.0210     1.3760 os         1 VEA      -0.343341
     32 C15          5.0930    -0.8300     2.5510 c3         1 VEA       0.081550
     33 C16          6.2890    -0.5920     1.6260 c3         1 VEA       0.101772
     34 H14          5.0720    -1.8910     2.8270 h1         1 VEA       0.060074
     35 H15          5.2170    -0.2390     3.4690 h1         1 VEA       0.060074
     36 C17          6.3650     0.8630     1.1470 c3         1 VEA       0.084611
     37 O2           7.4930    -0.9400     2.3230 oh         1 VEA      -0.388266
     38 H16          6.2190    -1.2510     0.7530 h1         1 VEA       0.065010
     39 H17          8.2320    -0.7100     1.7280 ho         1 VEA       0.210686
     40 O3           7.4930     0.9620     0.2570 os         1 VEA      -0.312729
     41 H18          6.5410     1.5370     1.9930 h1         1 VEA       0.060189
     42 H19          5.4480     1.1470     0.6200 h1         1 VEA       0.060189
     43 C18          7.5950     2.1240    -0.4420 c          1 VEA       0.267479
     44 C19          8.8260     2.1390    -1.3810 c3         1 VEA       0.060684
     45 O4           6.7700     3.0280    -0.3740 o          1 VEA      -0.265950
     46 C20         10.0340     1.3990    -0.6770 c3         1 VEA      -0.031185
     47 H21         10.6380     2.1700    -0.1730 hc         1 VEA       0.028391
     48 H22          9.6880     0.8330     0.1930 hc         1 VEA       0.028391
     49 C21          9.2390     3.6420    -1.4440 c3         1 VEA      -0.049575
     50 H24         10.1840     3.7780    -1.9790 hc         1 VEA       0.024164
     51 H25          9.3650     4.0640    -0.4390 hc         1 VEA       0.024164
     52 H26          8.4750     4.2500    -1.9440 hc         1 VEA       0.024164
     53 C22         -6.6280     0.7410     1.6080 c3         1 VEA       0.081550
     54 C23         -7.6990     0.2550     0.6230 c3         1 VEA       0.101772
     55 H27         -6.4150     1.8010     1.4250 h1         1 VEA       0.060074
     56 H28         -6.9720     0.5900     2.6380 h1         1 VEA       0.060074
     57 C24         -8.9210     1.1750     0.6110 c3         1 VEA       0.084600
     58 O5          -8.1300    -1.0650     0.9950 oh         1 VEA      -0.388266
     59 H29         -7.2730     0.1670    -0.3830 h1         1 VEA       0.065010
     60 H30         -8.8040    -1.3290     0.3430 ho         1 VEA       0.210686
     61 O6          -9.7710     0.7570    -0.4770 os         1 VEA      -0.312968
     62 H31         -8.6200     2.2150     0.4410 h1         1 VEA       0.060189
     63 H32         -9.4730     1.0870     1.5540 h1         1 VEA       0.060189
     64 C25        -10.9480     1.4390    -0.5660 c          1 VEA       0.263739
     65 C26        -11.6730     1.0730    -1.8540 c3         1 VEA       0.042887
     66 C27        -13.1740     0.8870    -1.5530 c3         1 VEA      -0.034643
     67 H34        -13.2840     0.3770    -0.5860 hc         1 VEA       0.028080
     68 H35        -13.6020     1.8880    -1.3930 hc         1 VEA       0.028080
     69 O7         -11.3260     2.2840     0.2330 o          1 VEA      -0.266308
     70 C28        -11.3590     2.1900    -2.8510 c3         1 VEA      -0.053052
     71 H36        -11.2460     0.1360    -2.2190 hc         1 VEA       0.040667
     72 H37        -11.9270     3.0990    -2.6240 hc         1 VEA       0.023855
     73 H38        -11.5790     1.8960    -3.8780 hc         1 VEA       0.023855
     74 H39        -10.2960     2.4560    -2.8220 hc         1 VEA       0.023855
     75 C29          7.8660     0.2430    -3.0030 ca         1 CRO      -0.044104
     76 C32          6.6250    -0.1840    -2.4980 ca         1 CRO      -0.058737
     77 C35          6.1940    -1.5060    -2.6440 ca         1 CRO      -0.061983
     78 C38          6.9840    -2.4260    -3.3240 ca         1 CRO      -0.062248
     79 C41          8.1920    -2.0180    -3.8750 ca         1 CRO      -0.061983
     80 C44          8.6210    -0.6950    -3.7280 ca         1 CRO      -0.058737
     81 C47          8.3010     1.7000    -2.8190 c3         1 CRO      -0.004225
     82 C50          9.1610     2.2140    -3.9970 c3         1 CRO      -0.057363
     83 H20          7.3600     2.2570    -2.9650 hc         1 CRO       0.036050
     84 H40         10.2020     1.8910    -3.9390 hc         1 CRO       0.023692
     85 H43          9.1600     3.3080    -4.0420 hc         1 CRO       0.023692
     86 H46          8.7570     1.8720    -4.9570 hc         1 CRO       0.023692
     87 H49          9.5650    -0.4230    -4.1920 ha         1 CRO       0.062571
     88 H52          6.6540    -3.4550    -3.4370 ha         1 CRO       0.062269
     89 H55          8.8100    -2.7280    -4.4200 ha         1 CRO       0.062279
     90 H58          5.9620     0.5160    -1.9920 ha         1 CRO       0.062571
     91 H61          5.2350    -1.8130    -2.2330 ha         1 CRO       0.062279
     92 C30         11.0700    -0.9340    -0.9780 ca         1 CRO      -0.045151
     93 C33          9.8880    -1.6160    -0.6310 ca         1 CRO      -0.058773
     94 C36          9.9010    -2.9420    -0.1950 ca         1 CRO      -0.061984
     95 C39         11.1030    -3.6320    -0.1160 ca         1 CRO      -0.062248
     96 C42         12.2850    -2.9930    -0.4750 ca         1 CRO      -0.061984
     97 C45         12.2690    -1.6600    -0.9030 ca         1 CRO      -0.058773
     98 C48         11.0030     0.5090    -1.4970 c3         1 CRO      -0.017979
     99 C51         12.3680     1.2140    -1.5850 c3         1 CRO      -0.058380
    100 H23         10.6630     0.4230    -2.5230 hc         1 CRO       0.034972
    101 H41         12.8680     1.2440    -0.6100 hc         1 CRO       0.023657
    102 H44         12.2530     2.2440    -1.9400 hc         1 CRO       0.023657
    103 H47         13.0330     0.7100    -2.2950 hc         1 CRO       0.023657
    104 H50         13.2190    -1.2140    -1.1830 ha         1 CRO       0.062571
    105 H53         11.1170    -4.6670     0.2140 ha         1 CRO       0.062269
    106 H56         13.2270    -3.5340    -0.4290 ha         1 CRO       0.062279
    107 H59          8.9220    -1.1260    -0.7130 ha         1 CRO       0.062571
    108 H62          8.9670    -3.4340     0.0670 ha         1 CRO       0.062279
    109 C31        -14.1590    -1.3470    -2.4080 ca         1 CRO      -0.045162
    110 C34        -15.4150    -1.9480    -2.2120 ca         1 CRO      -0.058773
    111 C37        -15.5400    -3.3350    -2.0970 ca         1 CRO      -0.061984
    112 C40        -14.4120    -4.1440    -2.1750 ca         1 CRO      -0.062248
    113 C43        -13.1600    -3.5660    -2.3720 ca         1 CRO      -0.061984
    114 C46        -13.0350    -2.1790    -2.4940 ca         1 CRO      -0.058773
    115 C49        -14.0810     0.1650    -2.5830 c3         1 CRO      -0.018269
    116 C52        -13.8290     0.5100    -4.0480 c3         1 CRO      -0.058391
    117 H33        -15.0890     0.5470    -2.3620 hc         1 CRO       0.034961
    118 H42        -12.8680     0.1230    -4.4020 hc         1 CRO       0.023656
    119 H45        -13.8570     1.5930    -4.2030 hc         1 CRO       0.023656
    120 H48        -14.6040     0.0720    -4.6880 hc         1 CRO       0.023656
    121 H51        -12.0480    -1.7720    -2.6810 ha         1 CRO       0.062571
    122 H54        -14.5080    -5.2230    -2.0900 ha         1 CRO       0.062269
    123 H57        -12.2780    -4.1990    -2.4420 ha         1 CRO       0.062279
    124 H60        -16.3150    -1.3390    -2.1590 ha         1 CRO       0.062571
    125 H63        -16.5210    -3.7810    -1.9560 ha         1 CRO       0.062279
@<TRIPOS>BOND
     1    73    70 1   
     2    74    70 1   
     3    70    72 1   
     4    70    65 1   
     5    50    49 1   
     6    52    49 1   
     7    49    51 1   
     8    49    44 1   
     9    71    65 1   
    10    65    64 1   
    11    65    66 1   
    12    67    66 1   
    13    44    43 1   
    14    44    46 1   
    15    64    69 2   
    16    64    61 1   
    17    66    68 1   
    18    47    46 1   
    19    61    57 1   
    20    59    54 1   
    21    62    57 1   
    22    38    33 1   
    23    43    40 1   
    24    43    45 2   
    25    46    48 1   
    26    40    36 1   
    27    57    54 1   
    28    57    63 1   
    29    42    36 1   
    30    54    58 1   
    31    54    53 1   
    32    60    58 1   
    33    39    37 1   
    34    36    33 1   
    35    36    41 1   
    36    33    37 1   
    37    33    32 1   
    38    55    53 1   
    39    27    12 1   
    40    24    20 1   
    41    31    53 1   
    42    31    19 1   
    43    53    56 1   
    44    30    32 1   
    45    30    13 1   
    46    34    32 1   
    47    32    35 1   
    48    12    13 ar  
    49    12    11 ar  
    50    20    19 ar  
    51    20    21 ar  
    52    19    18 ar  
    53    13    14 ar  
    54    26    11 1   
    55    11    10 ar  
    56    25    21 1   
    57    21    16 ar  
    58    18    23 1   
    59    18    17 ar  
    60    14    28 1   
    61    14    15 ar  
    62    16    17 ar  
    63    16     1 1   
    64    10    15 ar  
    65    10     1 1   
    66    17    22 1   
    67    15    29 1   
    68     1     2 1   
    69     1     6 1   
    70     5     2 1   
    71     8     6 1   
    72     2     3 1   
    73     2     4 1   
    74     6     9 1   
    75     6     7 1   
    76    83    81 1   
    77    86    82 1   
    78    90    76 1   
    79    76    75 ar  
    80    76    77 ar  
    81    81    75 1   
    82    81    82 1   
    83    85    82 1   
    84    91    77 1   
    85    75    80 ar  
    86    77    78 ar  
    87    82    84 1   
    88    78    88 1   
    89    78    79 ar  
    90    80    79 ar  
    91    80    87 1   
    92    79    89 1   
    93   100    98 1   
    94   103    99 1   
    95   107    93 1   
    96    93    92 ar  
    97    93    94 ar  
    98    98    92 1   
    99    98    99 1   
   100   102    99 1   
   101   108    94 1   
   102    92    97 ar  
   103    94    95 ar  
   104    99   101 1   
   105    95   105 1   
   106    95    96 ar  
   107    97    96 ar  
   108    97   104 1   
   109    96   106 1   
   110   117   115 1   
   111   120   116 1   
   112   124   110 1   
   113   110   109 ar  
   114   110   111 ar  
   115   115   109 1   
   116   115   116 1   
   117   119   116 1   
   118   125   111 1   
   119   109   114 ar  
   120   111   112 ar  
   121   116   118 1   
   122   112   122 1   
   123   112   113 ar  
   124   114   113 ar  
   125   114   121 1   
   126   113   123 1   
   127    81    44 1   
   128    98    46 1   
   129   115    66 1   
@<TRIPOS>SUBSTRUCTURE
     1 VEA         1 TEMP              0 ****  ****    0 ROOT
