@<TRIPOS>MOLECULE
*****
 125 129 0 0 0
SMALL
GASTEIGER

@<TRIPOS>ATOM
      1 C          -1.3342    0.1557    4.7540 C.3     1  VEA1        0.0151
      2 C1         -1.1988    1.5392    5.4440 C.3     1  VEA1       -0.0517
      3 H          -0.3025    1.5805    6.0762 H       1  VEA1        0.0241
      4 H1         -2.0561    1.7548    6.0929 H       1  VEA1        0.0241
      5 H2         -1.1175    2.3571    4.7179 H       1  VEA1        0.0241
      6 C2         -1.5772   -0.8693    5.8940 C.3     1  VEA1       -0.0517
      7 H3         -0.8187   -0.7895    6.6818 H       1  VEA1        0.0241
      8 H4         -1.5668   -1.9034    5.5293 H       1  VEA1        0.0241
      9 H5         -2.5508   -0.7047    6.3729 H       1  VEA1        0.0241
     10 C3         -0.0050   -0.0695    3.9946 C.ar    1  VEA1       -0.0372
     11 C4          0.2586    0.6491    2.8127 C.ar    1  VEA1       -0.0543
     12 C5          1.4687    0.5003    2.1280 C.ar    1  VEA1       -0.0197
     13 C6          2.4571   -0.3504    2.6161 C.ar    1  VEA1        0.1206
     14 C7          2.2130   -1.0798    3.7763 C.ar    1  VEA1       -0.0197
     15 C8          0.9968   -0.9386    4.4583 C.ar    1  VEA1       -0.0543
     16 C9         -2.5611    0.0483    3.8152 C.ar    1  VEA1       -0.0372
     17 C10        -3.5458    1.0455    3.7346 C.ar    1  VEA1       -0.0543
     18 C11        -4.6775    0.8912    2.9200 C.ar    1  VEA1       -0.0197
     19 C12        -4.8590   -0.2679    2.1677 C.ar    1  VEA1        0.1206
     20 C13        -3.8814   -1.2596    2.2215 C.ar    1  VEA1       -0.0197
     21 C14        -2.7490   -1.1061    3.0311 C.ar    1  VEA1       -0.0543
     22 H6         -3.4701    1.9624    4.3126 H       1  VEA1        0.0622
     23 H7         -5.4026    1.6979    2.9146 H       1  VEA1        0.0654
     24 H8         -4.0027   -2.1679    1.6365 H       1  VEA1        0.0654
     25 H9         -2.0129   -1.9080    3.0496 H       1  VEA1        0.0622
     26 H10        -0.4823    1.3384    2.4112 H       1  VEA1        0.0622
     27 H11         1.6426    1.0665    1.2165 H       1  VEA1        0.0654
     28 H12         2.9439   -1.7762    4.1744 H       1  VEA1        0.0654
     29 H13         0.8626   -1.5242    5.3637 H       1  VEA1        0.0622
     30 O           3.6004   -0.4141    1.8690 O.3     1  VEA1       -0.4893
     31 O1         -5.9347   -0.5511    1.3664 O.3     1  VEA1       -0.4893
     32 C15         4.7846   -0.7804    2.5788 C.3     1  VEA1        0.1186
     33 C16         6.0044   -0.5498    1.6849 C.3     1  VEA1        0.1230
     34 H14         4.7507   -1.8422    2.8523 H       1  VEA1        0.0724
     35 H15         4.8889   -0.1912    3.4999 H       1  VEA1        0.0724
     36 C17         6.1153    0.9075    1.2226 C.3     1  VEA1        0.1215
     37 O2          7.1870   -0.9233    2.4050 O.3     1  VEA1       -0.3850
     38 H16         5.9451   -1.1997    0.8040 H       1  VEA1        0.0662
     39 H17         7.9428   -0.6985    1.8294 H       1  VEA1        0.2101
     40 O3          7.2617    0.9916    0.3527 O.3     1  VEA1       -0.4617
     41 H18         6.2904    1.5699    2.0776 H       1  VEA1        0.0725
     42 H19         5.2134    1.2141    0.6822 H       1  VEA1        0.0725
     43 C18         7.3934    2.1520   -0.3451 C.2     1  VEA1        0.3097
     44 C19         8.6343    2.1413   -1.2727 C.3     1  VEA1        0.0508
     45 O4          6.5851    3.0714   -0.2858 O.2     1  VEA1       -0.2506
     46 C20         9.8207    1.3837   -0.5519 C.3     1  VEA1       -0.0525
     47 H21        10.4131    2.1412   -0.0152 H       1  VEA1        0.0237
     48 H22         9.4500    0.8006    0.2953 H       1  VEA1        0.0237
     49 C21         9.0729    3.6364   -1.3409 C.3     1  VEA1       -0.0525
     50 H24        10.0238    3.7531   -1.8714 H       1  VEA1        0.0237
     51 H25         9.2006    4.0612   -0.3373 H       1  VEA1        0.0237
     52 H26         8.3224    4.2547   -1.8482 H       1  VEA1        0.0237
     53 C22        -6.9415    0.4630    1.2714 C.3     1  VEA1        0.1186
     54 C23        -8.1215   -0.0371    0.4212 C.3     1  VEA1        0.1230
     55 H27        -6.4967    1.3481    0.8006 H       1  VEA1        0.0724
     56 H28        -7.3128    0.7089    2.2742 H       1  VEA1        0.0724
     57 C24        -8.9665    1.1578   -0.0286 C.3     1  VEA1        0.1215
     58 O5         -8.9387   -0.9202    1.2039 O.3     1  VEA1       -0.3850
     59 H29        -7.7720   -0.6128   -0.4428 H       1  VEA1        0.0662
     60 H30        -9.7247   -1.1222    0.6629 H       1  VEA1        0.2101
     61 O6        -10.1512    0.7048   -0.7115 O.3     1  VEA1       -0.4617
     62 H31        -8.3645    1.7947   -0.6880 H       1  VEA1        0.0725
     63 H32        -9.2917    1.7336    0.8466 H       1  VEA1        0.0725
     64 C25       -10.8385    1.7247   -1.3046 C.2     1  VEA1        0.3097
     65 C26       -12.2136    1.2879   -1.8215 C.3     1  VEA1        0.0508
     66 C27       -13.0169    0.7279   -0.6289 C.3     1  VEA1       -0.0525
     67 H33       -12.5608   -0.1748   -0.2085 H       1  VEA1        0.0237
     68 H34       -14.0475    0.4911   -0.9143 H       1  VEA1        0.0237
     69 H35       -13.0615    1.4582    0.1885 H       1  VEA1        0.0237
     70 O7        -10.4089    2.8704   -1.3856 O.2     1  VEA1       -0.2506
     71 C28       -12.9580    2.5721   -2.2773 C.3     1  VEA1       -0.0525
     72 H37       -13.0216    3.3077   -1.4662 H       1  VEA1        0.0237
     73 H38       -13.9820    2.3453   -2.5958 H       1  VEA1        0.0237
     74 H39       -12.4457    3.0572   -3.1159 H       1  VEA1        0.0237
     75 C           7.6834    0.2395   -2.8930 C.ar    1  CRO01      -0.0476
     76 C1          6.4408   -0.1888   -2.3932 C.ar    1  CRO01      -0.0586
     77 C2          6.0137   -1.5122   -2.5385 C.ar    1  CRO01      -0.0615
     78 C3          6.8093   -2.4324   -3.2120 C.ar    1  CRO01      -0.0617
     79 C4          8.0198   -2.0224   -3.7582 C.ar    1  CRO01      -0.0615
     80 C5          8.4445   -0.6983   -3.6113 C.ar    1  CRO01      -0.0586
     81 C6          8.1144    1.6987   -2.7111 C.3     1  CRO01      -0.0305
     82 C7          8.9772    2.2093   -3.8881 C.3     1  CRO01      -0.0613
     83 H1          7.1729    2.2539   -2.8622 H       1  CRO01       0.0311
     84 H2         10.0190    1.8883   -3.8256 H       1  CRO01       0.0233
     85 H3          8.9745    3.3031   -3.9372 H       1  CRO01       0.0233
     86 H4          8.5771    1.8635   -4.8487 H       1  CRO01       0.0233
     87 H5          9.3913   -0.4258   -4.0704 H       1  CRO01       0.0620
     88 H6          6.4820   -3.4623   -3.3243 H       1  CRO01       0.0618
     89 H7          8.6419   -2.7321   -4.2979 H       1  CRO01       0.0618
     90 H8          5.7740    0.5106   -1.8934 H       1  CRO01       0.0620
     91 H9          5.0536   -1.8203   -2.1321 H       1  CRO01       0.0618
     92 C          10.8783   -0.9395   -0.8613 C.ar    1  CRO11      -0.0476
     93 C1          9.6990   -1.6277   -0.5160 C.ar    1  CRO11      -0.0586
     94 C2          9.7169   -2.9580   -0.0915 C.ar    1  CRO11      -0.0615
     95 C3         10.9207   -3.6459   -0.0240 C.ar    1  CRO11      -0.0617
     96 C4         12.0997   -3.0010   -0.3838 C.ar    1  CRO11      -0.0615
     97 C5         12.0788   -1.6640   -0.7999 C.ar    1  CRO11      -0.0586
     98 C6         10.8075    0.5089   -1.3670 C.3     1  CRO11      -0.0305
     99 C7         12.1695    1.2230   -1.4297 C.3     1  CRO11      -0.0613
    100 H1         10.4820    0.4302   -2.3980 H       1  CRO11       0.0311
    101 H2         12.6582    1.2422   -0.4490 H       1  CRO11       0.0233
    102 H3         12.0522    2.2572   -1.7711 H       1  CRO11       0.0233
    103 H4         12.8450    0.7329   -2.1390 H       1  CRO11       0.0233
    104 H5         13.0263   -1.2144   -1.0819 H       1  CRO11       0.0620
    105 H6         10.9384   -4.6836    0.2967 H       1  CRO11       0.0618
    106 H7         13.0425   -3.5409   -0.3483 H       1  CRO11       0.0618
    107 H8          8.7304   -1.1409   -0.5892 H       1  CRO11       0.0620
    108 H9          8.7859   -3.4538    0.1711 H       1  CRO11       0.0618
    109 C         -12.3298   -1.1584   -2.7539 C.ar    1  CRO21      -0.0476
    110 C1        -13.6178   -1.7088   -2.8963 C.ar    1  CRO21      -0.0586
    111 C2        -13.8598   -3.0553   -2.6242 C.ar    1  CRO21      -0.0615
    112 C3        -12.8169   -3.8754   -2.2067 C.ar    1  CRO21      -0.0617
    113 C4        -11.5355   -3.3473   -2.0592 C.ar    1  CRO21      -0.0615
    114 C5        -11.2919   -1.9971   -2.3282 C.ar    1  CRO21      -0.0586
    115 C6        -12.1259    0.3215   -3.0568 C.3     1  CRO21      -0.0305
    116 C7        -10.8983    0.5633   -3.9537 C.3     1  CRO21      -0.0613
    117 H1        -12.9719    0.5819   -3.7118 H       1  CRO21       0.0311
    118 H2         -9.9567    0.3120   -3.4555 H       1  CRO21       0.0233
    119 H3        -10.8427    1.6106   -4.2683 H       1  CRO21       0.0233
    120 H4        -10.9575   -0.0496   -4.8609 H       1  CRO21       0.0233
    121 H5        -10.2819   -1.6174   -2.2028 H       1  CRO21       0.0620
    122 H6        -13.0023   -4.9256   -1.9973 H       1  CRO21       0.0618
    123 H7        -10.7216   -3.9912   -1.7351 H       1  CRO21       0.0618
    124 H8        -14.4499   -1.0861   -3.2202 H       1  CRO21       0.0620
    125 H9        -14.8615   -3.4613   -2.7396 H       1  CRO21       0.0618
@<TRIPOS>BOND
     1    73    71    1
     2    74    71    1
     3    71    72    1
     4    71    65    1
     5    50    49    1
     6    52    49    1
     7    49    51    1
     8    49    44    1
     9    65    64    1
    10    65    66    1
    11    68    66    1
    12    44    43    1
    13    44    46    1
    14    64    70    2
    15    64    61    1
    16    66    69    1
    17    66    67    1
    18    47    46    1
    19    61    57    1
    20    59    54    1
    21    62    57    1
    22    38    33    1
    23    43    40    1
    24    43    45    2
    25    46    48    1
    26    40    36    1
    27    57    54    1
    28    57    63    1
    29    42    36    1
    30    54    58    1
    31    54    53    1
    32    60    58    1
    33    39    37    1
    34    36    33    1
    35    36    41    1
    36    33    37    1
    37    33    32    1
    38    55    53    1
    39    27    12    1
    40    24    20    1
    41    31    53    1
    42    31    19    1
    43    53    56    1
    44    30    32    1
    45    30    13    1
    46    34    32    1
    47    32    35    1
    48    12    13   ar
    49    12    11   ar
    50    20    19   ar
    51    20    21   ar
    52    19    18   ar
    53    13    14   ar
    54    26    11    1
    55    11    10   ar
    56    25    21    1
    57    21    16   ar
    58    18    23    1
    59    18    17   ar
    60    14    28    1
    61    14    15   ar
    62    16    17   ar
    63    16     1    1
    64    10    15   ar
    65    10     1    1
    66    17    22    1
    67    15    29    1
    68     1     2    1
    69     1     6    1
    70     5     2    1
    71     8     6    1
    72     2     3    1
    73     2     4    1
    74     6     9    1
    75     6     7    1
    76    83    81    1
    77    86    82    1
    78    90    76    1
    79    76    75   ar
    80    76    77   ar
    81    81    75    1
    82    81    82    1
    83    85    82    1
    84    91    77    1
    85    75    80   ar
    86    77    78   ar
    87    82    84    1
    88    78    88    1
    89    78    79   ar
    90    80    79   ar
    91    80    87    1
    92    79    89    1
    93   100    98    1
    94   103    99    1
    95   107    93    1
    96    93    92   ar
    97    93    94   ar
    98    98    92    1
    99    98    99    1
   100   102    99    1
   101   108    94    1
   102    92    97   ar
   103    94    95   ar
   104    99   101    1
   105    95   105    1
   106    95    96   ar
   107    97    96   ar
   108    97   104    1
   109    96   106    1
   110   117   115    1
   111   120   116    1
   112   124   110    1
   113   110   109   ar
   114   110   111   ar
   115   115   109    1
   116   115   116    1
   117   119   116    1
   118   125   111    1
   119   109   114   ar
   120   111   112   ar
   121   116   118    1
   122   112   122    1
   123   112   113   ar
   124   114   113   ar
   125   114   121    1
   126   113   123    1
   127    81    44    1
   128    98    46    1
   129   115    65    1
