@<TRIPOS>MOLECULE
*****
 125 129 0 0 0
SMALL
GASTEIGER

@<TRIPOS>ATOM
      1 C           1.8815    0.3111    4.7914 C.3     1  VEA1        0.0151
      2 C1          1.9791    1.6290    5.6067 C.3     1  VEA1       -0.0517
      3 H           2.8665    1.6304    6.2526 H       1  VEA1        0.0241
      4 H1          1.1094    1.7678    6.2601 H       1  VEA1        0.0241
      5 H2          2.0521    2.5114    4.9596 H       1  VEA1        0.0241
      6 C2          1.6467   -0.8165    5.8313 C.3     1  VEA1       -0.0517
      7 H3          2.3968   -0.7948    6.6310 H       1  VEA1        0.0241
      8 H4          1.6787   -1.8131    5.3755 H       1  VEA1        0.0241
      9 H5          0.6661   -0.7118    6.3130 H       1  VEA1        0.0241
     10 C3          3.2273    0.1840    4.0356 C.ar    1  VEA1       -0.0372
     11 C4          3.4994    1.0324    2.9465 C.ar    1  VEA1       -0.0543
     12 C5          4.7309    0.9913    2.2852 C.ar    1  VEA1       -0.0197
     13 C6          5.7308    0.1103    2.6929 C.ar    1  VEA1        0.1206
     14 C7          5.4765   -0.7500    3.7569 C.ar    1  VEA1       -0.0197
     15 C8          4.2401   -0.7112    4.4213 C.ar    1  VEA1       -0.0543
     16 C9          0.6684    0.2696    3.8281 C.ar    1  VEA1       -0.0372
     17 C10        -0.3338    1.2538    3.8202 C.ar    1  VEA1       -0.0543
     18 C11        -1.4460    1.1621    2.9677 C.ar    1  VEA1       -0.0197
     19 C12        -1.5890    0.0803    2.1017 C.ar    1  VEA1        0.1206
     20 C13        -0.5990   -0.9011    2.0909 C.ar    1  VEA1       -0.0197
     21 C14         0.5127   -0.8104    2.9389 C.ar    1  VEA1       -0.0543
     22 H6         -0.2851    2.1133    4.4833 H       1  VEA1        0.0622
     23 H7         -2.1846    1.9545    3.0195 H       1  VEA1        0.0654
     24 H8         -0.6940   -1.7527    1.4214 H       1  VEA1        0.0654
     25 H9          1.2594   -1.6018    2.8999 H       1  VEA1        0.0622
     26 H10         2.7517    1.7453    2.6036 H       1  VEA1        0.0622
     27 H11         4.9127    1.6629    1.4495 H       1  VEA1        0.0654
     28 H12         6.2177   -1.4625    4.1045 H       1  VEA1        0.0654
     29 H13         4.1018   -1.3930    5.2563 H       1  VEA1        0.0622
     30 O           6.8927    0.1961    1.9793 O.3     1  VEA1       -0.4893
     31 O1         -2.6299   -0.1327    1.2362 O.3     1  VEA1       -0.4893
     32 C15         7.9934   -0.6007    2.4140 C.3     1  VEA1        0.1186
     33 C16         9.2205   -0.2686    1.5573 C.3     1  VEA1        0.1230
     34 H14         7.7556   -1.6663    2.3032 H       1  VEA1        0.0724
     35 H15         8.2250   -0.4073    3.4697 H       1  VEA1        0.0724
     36 C17         9.6908    1.1740    1.7808 C.3     1  VEA1        0.1215
     37 O2         10.2810   -1.1747    1.8902 O.3     1  VEA1       -0.3850
     38 H16         8.9807   -0.4145    0.4991 H       1  VEA1        0.0662
     39 H17        11.0130   -0.9658    1.2770 H       1  VEA1        0.2101
     40 O3         10.8815    1.4236    1.0008 O.3     1  VEA1       -0.4617
     41 H18         9.9870    1.3138    2.8261 H       1  VEA1        0.0725
     42 H19         8.8993    1.8984    1.5618 H       1  VEA1        0.0725
     43 C18        10.7397    2.1653   -0.1295 C.2     1  VEA1        0.3097
     44 C19        12.0765    2.3739   -0.8628 C.3     1  VEA1        0.0508
     45 O4          9.6687    2.5948   -0.5437 O.2     1  VEA1       -0.2506
     46 C20        13.2864    2.0801    0.0470 C.3     1  VEA1       -0.0525
     47 H20        13.2788    2.7356    0.9267 H       1  VEA1        0.0237
     48 H21        14.2351    2.2476   -0.4729 H       1  VEA1        0.0237
     49 H22        13.2886    1.0545    0.4272 H       1  VEA1        0.0237
     50 C21        12.1468    3.8787   -1.2143 C.3     1  VEA1       -0.0525
     51 H24        13.1222    4.1533   -1.6309 H       1  VEA1        0.0237
     52 H25        11.9863    4.4993   -0.3244 H       1  VEA1        0.0237
     53 H26        11.3791    4.1571   -1.9452 H       1  VEA1        0.0237
     54 C22        -3.6768    0.8451    1.2298 C.3     1  VEA1        0.1186
     55 C23        -4.8110    0.4108    0.2779 C.3     1  VEA1        0.1230
     56 H27        -3.2584    1.8003    0.8907 H       1  VEA1        0.0724
     57 H28        -4.0881    0.9478    2.2420 H       1  VEA1        0.0724
     58 C24        -5.7498    1.6075    0.0313 C.3     1  VEA1        0.1215
     59 O5         -5.4956   -0.7016    0.8731 O.3     1  VEA1       -0.3850
     60 H29        -4.4041    0.0466   -0.6711 H       1  VEA1        0.0662
     61 H30        -6.4525   -0.5010    0.9371 H       1  VEA1        0.2101
     62 O6         -6.7325    1.3814   -1.0036 O.3     1  VEA1       -0.4617
     63 H31        -5.1636    2.4680   -0.3096 H       1  VEA1        0.0725
     64 H32        -6.2571    1.9117    0.9555 H       1  VEA1        0.0725
     65 C25        -7.8769    0.7508   -0.6211 C.2     1  VEA1        0.3097
     66 C26        -9.0396    0.9242   -1.6370 C.3     1  VEA1        0.0508
     67 C27       -10.3526    0.4502   -0.8783 C.3     1  VEA1       -0.0525
     68 H34       -10.6035    1.2784   -0.1948 H       1  VEA1        0.0237
     69 H35       -10.0869   -0.3344   -0.1687 H       1  VEA1        0.0237
     70 O7         -7.9658    0.1803    0.4615 O.2     1  VEA1       -0.2506
     71 C28        -9.1649    2.4641   -1.8559 C.3     1  VEA1       -0.0525
     72 H37        -9.4567    2.9780   -0.9324 H       1  VEA1        0.0237
     73 H38        -9.8975    2.7099   -2.6275 H       1  VEA1        0.0237
     74 H39        -8.2219    2.9259   -2.1657 H       1  VEA1        0.0237
     75 C          11.8654    0.0113   -1.9100 C.ar    1  CRO01      -0.0476
     76 C1         10.5888   -0.5620   -2.0304 C.ar    1  CRO01      -0.0586
     77 C2         10.3886   -1.9221   -1.7875 C.ar    1  CRO01      -0.0615
     78 C3         11.4603   -2.7297   -1.4189 C.ar    1  CRO01      -0.0617
     79 C4         12.7337   -2.1796   -1.3018 C.ar    1  CRO01      -0.0615
     80 C5         12.9361   -0.8204   -1.5500 C.ar    1  CRO01      -0.0586
     81 C6         12.0414    1.5066   -2.1696 C.3     1  CRO01      -0.0305
     82 C7         13.2146    1.7610   -3.1320 C.3     1  CRO01      -0.0613
     83 H1         11.1514    1.8231   -2.7357 H       1  CRO01       0.0311
     84 H2         14.1870    1.5675   -2.6702 H       1  CRO01       0.0233
     85 H3         13.2139    2.7945   -3.4921 H       1  CRO01       0.0233
     86 H4         13.1360    1.1168   -4.0160 H       1  CRO01       0.0233
     87 H5         13.9435   -0.4226   -1.4541 H       1  CRO01       0.0620
     88 H6         11.3035   -3.7879   -1.2267 H       1  CRO01       0.0618
     89 H7         13.5730   -2.8105   -1.0201 H       1  CRO01       0.0618
     90 H8          9.7329    0.0501   -2.3124 H       1  CRO01       0.0620
     91 H9          9.3934   -2.3492   -1.8833 H       1  CRO01       0.0618
     92 C          -8.8073   -1.2742   -3.1117 C.ar    1  CRO11      -0.0476
     93 C1         -9.6322   -1.8591   -4.0918 C.ar    1  CRO11      -0.0586
     94 C2         -9.6690   -3.2414   -4.2742 C.ar    1  CRO11      -0.0615
     95 C3         -8.8678   -4.0637   -3.4902 C.ar    1  CRO11      -0.0617
     96 C4         -8.0316   -3.5018   -2.5271 C.ar    1  CRO11      -0.0615
     97 C5         -7.9967   -2.1161   -2.3397 C.ar    1  CRO11      -0.0586
     98 C6         -8.7418    0.2412   -3.0200 C.3     1  CRO11      -0.0305
     99 C7         -7.4330    0.6781   -3.7147 C.3     1  CRO11      -0.0613
    100 H1         -9.5197    0.6226   -3.6917 H       1  CRO11       0.0311
    101 H2         -6.5438    0.2721   -3.2215 H       1  CRO11       0.0233
    102 H3         -7.3348    1.7651   -3.7688 H       1  CRO11       0.0233
    103 H4         -7.4096    0.3117   -4.7491 H       1  CRO11       0.0233
    104 H5         -7.3098   -1.7178   -1.5985 H       1  CRO11       0.0620
    105 H6         -8.8968   -5.1405   -3.6290 H       1  CRO11       0.0618
    106 H7         -7.3984   -4.1444   -1.9208 H       1  CRO11       0.0618
    107 H8        -10.2606   -1.2395   -4.7278 H       1  CRO11       0.0620
    108 H9        -10.3273   -3.6715   -5.0240 H       1  CRO11       0.0618
    109 C         -12.0607   -1.4342   -1.6574 C.ar    1  CRO21      -0.0476
    110 C1        -13.2344   -1.8405   -2.3232 C.ar    1  CRO21      -0.0586
    111 C2        -13.6242   -3.1846   -2.3812 C.ar    1  CRO21      -0.0615
    112 C3        -12.8573   -4.1624   -1.7617 C.ar    1  CRO21      -0.0617
    113 C4        -11.7065   -3.7919   -1.0805 C.ar    1  CRO21      -0.0615
    114 C5        -11.3205   -2.4468   -1.0231 C.ar    1  CRO21      -0.0586
    115 C6        -11.7203    0.0608   -1.5281 C.3     1  CRO21      -0.0305
    116 C7        -12.0942    0.8996   -2.7549 C.3     1  CRO21      -0.0613
    117 H1        -12.4489    0.3742   -0.7610 H       1  CRO21       0.0311
    118 H2        -11.6205    0.5372   -3.6688 H       1  CRO21       0.0233
    119 H3        -11.8479    1.9526   -2.6076 H       1  CRO21       0.0233
    120 H4        -13.1746    0.8836   -2.9350 H       1  CRO21       0.0233
    121 H5        -10.4112   -2.2375   -0.4701 H       1  CRO21       0.0620
    122 H6        -13.1564   -5.2055   -1.8013 H       1  CRO21       0.0618
    123 H7        -11.0958   -4.5453   -0.5895 H       1  CRO21       0.0618
    124 H8        -13.8906   -1.1151   -2.7952 H       1  CRO21       0.0620
    125 H9        -14.5369   -3.4619   -2.9015 H       1  CRO21       0.0618
@<TRIPOS>BOND
     1    73    71    1
     2    74    71    1
     3    71    72    1
     4    71    66    1
     5    51    50    1
     6    53    50    1
     7    50    52    1
     8    50    44    1
     9    66    65    1
    10    66    67    1
    11    68    67    1
    12    44    43    1
    13    44    46    1
    14    65    70    2
    15    65    62    1
    16    67    69    1
    17    48    46    1
    18    62    58    1
    19    60    55    1
    20    63    58    1
    21    38    33    1
    22    43    40    1
    23    43    45    2
    24    46    47    1
    25    46    49    1
    26    40    36    1
    27    58    55    1
    28    58    64    1
    29    42    36    1
    30    55    59    1
    31    55    54    1
    32    61    59    1
    33    39    37    1
    34    36    33    1
    35    36    41    1
    36    33    37    1
    37    33    32    1
    38    56    54    1
    39    27    12    1
    40    24    20    1
    41    31    54    1
    42    31    19    1
    43    54    57    1
    44    30    32    1
    45    30    13    1
    46    34    32    1
    47    32    35    1
    48    12    13   ar
    49    12    11   ar
    50    20    19   ar
    51    20    21   ar
    52    19    18   ar
    53    13    14   ar
    54    26    11    1
    55    11    10   ar
    56    25    21    1
    57    21    16   ar
    58    18    23    1
    59    18    17   ar
    60    14    28    1
    61    14    15   ar
    62    16    17   ar
    63    16     1    1
    64    10    15   ar
    65    10     1    1
    66    17    22    1
    67    15    29    1
    68     1     2    1
    69     1     6    1
    70     5     2    1
    71     8     6    1
    72     2     3    1
    73     2     4    1
    74     6     9    1
    75     6     7    1
    76    83    81    1
    77    86    82    1
    78    90    76    1
    79    76    75   ar
    80    76    77   ar
    81    81    75    1
    82    81    82    1
    83    85    82    1
    84    91    77    1
    85    75    80   ar
    86    77    78   ar
    87    82    84    1
    88    78    88    1
    89    78    79   ar
    90    80    79   ar
    91    80    87    1
    92    79    89    1
    93   100    98    1
    94   103    99    1
    95   107    93    1
    96    93    92   ar
    97    93    94   ar
    98    98    92    1
    99    98    99    1
   100   102    99    1
   101   108    94    1
   102    92    97   ar
   103    94    95   ar
   104    99   101    1
   105    95   105    1
   106    95    96   ar
   107    97    96   ar
   108    97   104    1
   109    96   106    1
   110   117   115    1
   111   120   116    1
   112   124   110    1
   113   110   109   ar
   114   110   111   ar
   115   115   109    1
   116   115   116    1
   117   119   116    1
   118   125   111    1
   119   109   114   ar
   120   111   112   ar
   121   116   118    1
   122   112   122    1
   123   112   113   ar
   124   114   113   ar
   125   114   121    1
   126   113   123    1
   127    81    44    1
   128    98    66    1
   129   115    67    1
