@<TRIPOS>MOLECULE
*****
  125   129     1     0     0
SMALL
gas


@<TRIPOS>ATOM
      1 C           -1.3340     0.1560     4.7540 c3         1 VEA       0.014613
      2 C1          -1.1990     1.5390     5.4440 c3         1 VEA      -0.051690
      3 H           -0.3020     1.5810     6.0760 hc         1 VEA       0.024275
      4 H1          -2.0560     1.7550     6.0930 hc         1 VEA       0.024275
      5 H2          -1.1170     2.3570     4.7180 hc         1 VEA       0.024275
      6 C2          -1.5770    -0.8690     5.8940 c3         1 VEA      -0.051690
      7 H3          -0.8190    -0.7890     6.6820 hc         1 VEA       0.024275
      8 H4          -1.5670    -1.9030     5.5290 hc         1 VEA       0.024275
      9 H5          -2.5510    -0.7050     6.3730 hc         1 VEA       0.024275
     10 C3          -0.0050    -0.0700     3.9950 ca         1 VEA      -0.037775
     11 C4           0.2590     0.6490     2.8130 ca         1 VEA      -0.055555
     12 C5           1.4690     0.5000     2.1280 ca         1 VEA      -0.031489
     13 C6           2.4570    -0.3500     2.6160 ca         1 VEA       0.075048
     14 C7           2.2130    -1.0800     3.7760 ca         1 VEA      -0.031489
     15 C8           0.9970    -0.9390     4.4580 ca         1 VEA      -0.055555
     16 C9          -2.5610     0.0480     3.8150 ca         1 VEA      -0.037775
     17 C10         -3.5460     1.0460     3.7350 ca         1 VEA      -0.055555
     18 C11         -4.6780     0.8910     2.9200 ca         1 VEA      -0.031489
     19 C12         -4.8590    -0.2680     2.1680 ca         1 VEA       0.075048
     20 C13         -3.8810    -1.2600     2.2210 ca         1 VEA      -0.031489
     21 C14         -2.7490    -1.1060     3.0310 ca         1 VEA      -0.055555
     22 H6          -3.4700     1.9620     4.3130 ha         1 VEA       0.062690
     23 H7          -5.4030     1.6980     2.9150 ha         1 VEA       0.065049
     24 H8          -4.0030    -2.1680     1.6370 ha         1 VEA       0.065049
     25 H9          -2.0130    -1.9080     3.0500 ha         1 VEA       0.062690
     26 H10         -0.4820     1.3380     2.4110 ha         1 VEA       0.062690
     27 H11          1.6430     1.0670     1.2160 ha         1 VEA       0.065049
     28 H12          2.9440    -1.7760     4.1740 ha         1 VEA       0.065049
     29 H13          0.8630    -1.5240     5.3640 ha         1 VEA       0.062690
     30 O            3.6000    -0.4140     1.8690 os         1 VEA      -0.343341
     31 O1          -5.9350    -0.5510     1.3660 os         1 VEA      -0.343341
     32 C15          4.7850    -0.7800     2.5790 c3         1 VEA       0.081550
     33 C16          6.0040    -0.5500     1.6850 c3         1 VEA       0.101772
     34 H14          4.7510    -1.8420     2.8520 h1         1 VEA       0.060074
     35 H15          4.8890    -0.1910     3.5000 h1         1 VEA       0.060074
     36 C17          6.1150     0.9070     1.2230 c3         1 VEA       0.084611
     37 O2           7.1870    -0.9230     2.4050 oh         1 VEA      -0.388266
     38 H16          5.9450    -1.2000     0.8040 h1         1 VEA       0.065010
     39 H17          7.9430    -0.6990     1.8290 ho         1 VEA       0.210686
     40 O3           7.2620     0.9920     0.3530 os         1 VEA      -0.312729
     41 H18          6.2900     1.5700     2.0780 h1         1 VEA       0.060189
     42 H19          5.2130     1.2140     0.6820 h1         1 VEA       0.060189
     43 C18          7.3930     2.1520    -0.3450 c          1 VEA       0.267479
     44 C19          8.6340     2.1410    -1.2730 c3         1 VEA       0.060684
     45 O4           6.5850     3.0710    -0.2860 o          1 VEA      -0.265950
     46 C20          9.8210     1.3840    -0.5520 c3         1 VEA      -0.031185
     47 H21         10.4130     2.1410    -0.0150 hc         1 VEA       0.028391
     48 H22          9.4500     0.8010     0.2950 hc         1 VEA       0.028391
     49 C21          9.0730     3.6360    -1.3410 c3         1 VEA      -0.049575
     50 H24         10.0240     3.7530    -1.8710 hc         1 VEA       0.024164
     51 H25          9.2010     4.0610    -0.3370 hc         1 VEA       0.024164
     52 H26          8.3220     4.2550    -1.8480 hc         1 VEA       0.024164
     53 C22         -6.9410     0.4630     1.2710 c3         1 VEA       0.081550
     54 C23         -8.1210    -0.0370     0.4210 c3         1 VEA       0.101772
     55 H27         -6.4970     1.3480     0.8010 h1         1 VEA       0.060074
     56 H28         -7.3130     0.7090     2.2740 h1         1 VEA       0.060074
     57 C24         -8.9660     1.1580    -0.0290 c3         1 VEA       0.084611
     58 O5          -8.9390    -0.9200     1.2040 oh         1 VEA      -0.388266
     59 H29         -7.7720    -0.6130    -0.4430 h1         1 VEA       0.065010
     60 H30         -9.7250    -1.1220     0.6630 ho         1 VEA       0.210686
     61 O6         -10.1510     0.7050    -0.7120 os         1 VEA      -0.312737
     62 H31         -8.3640     1.7950    -0.6880 h1         1 VEA       0.060189
     63 H32         -9.2920     1.7340     0.8470 h1         1 VEA       0.060189
     64 C25        -10.8380     1.7250    -1.3050 c          1 VEA       0.267174
     65 C26        -12.2140     1.2880    -1.8210 c3         1 VEA       0.057307
     66 C27        -13.0170     0.7280    -0.6290 c3         1 VEA      -0.049870
     67 H33        -12.5610    -0.1750    -0.2080 hc         1 VEA       0.024153
     68 H34        -14.0470     0.4910    -0.9140 hc         1 VEA       0.024153
     69 H35        -13.0620     1.4580     0.1890 hc         1 VEA       0.024153
     70 O7         -10.4090     2.8700    -1.3860 o          1 VEA      -0.265963
     71 C28        -12.9580     2.5720    -2.2770 c3         1 VEA      -0.049870
     72 H37        -13.0220     3.3080    -1.4660 hc         1 VEA       0.024153
     73 H38        -13.9820     2.3450    -2.5960 hc         1 VEA       0.024153
     74 H39        -12.4460     3.0570    -3.1160 hc         1 VEA       0.024153
     75 C29          7.6830     0.2390    -2.8930 ca         1 CRO      -0.044104
     76 C32          6.4410    -0.1890    -2.3930 ca         1 CRO      -0.058737
     77 C35          6.0140    -1.5120    -2.5380 ca         1 CRO      -0.061983
     78 C38          6.8090    -2.4320    -3.2120 ca         1 CRO      -0.062248
     79 C41          8.0200    -2.0220    -3.7580 ca         1 CRO      -0.061983
     80 C44          8.4440    -0.6980    -3.6110 ca         1 CRO      -0.058737
     81 C47          8.1140     1.6990    -2.7110 c3         1 CRO      -0.004225
     82 C50          8.9770     2.2090    -3.8880 c3         1 CRO      -0.057363
     83 H20          7.1730     2.2540    -2.8620 hc         1 CRO       0.036050
     84 H40         10.0190     1.8880    -3.8260 hc         1 CRO       0.023692
     85 H43          8.9750     3.3030    -3.9370 hc         1 CRO       0.023692
     86 H46          8.5770     1.8630    -4.8490 hc         1 CRO       0.023692
     87 H49          9.3910    -0.4260    -4.0700 ha         1 CRO       0.062571
     88 H52          6.4820    -3.4620    -3.3240 ha         1 CRO       0.062269
     89 H55          8.6420    -2.7320    -4.2980 ha         1 CRO       0.062279
     90 H58          5.7740     0.5110    -1.8930 ha         1 CRO       0.062571
     91 H61          5.0540    -1.8200    -2.1320 ha         1 CRO       0.062279
     92 C30         10.8780    -0.9400    -0.8610 ca         1 CRO      -0.045151
     93 C33          9.6990    -1.6280    -0.5160 ca         1 CRO      -0.058773
     94 C36          9.7170    -2.9580    -0.0910 ca         1 CRO      -0.061984
     95 C39         10.9210    -3.6460    -0.0240 ca         1 CRO      -0.062248
     96 C42         12.1000    -3.0010    -0.3840 ca         1 CRO      -0.061984
     97 C45         12.0790    -1.6640    -0.8000 ca         1 CRO      -0.058773
     98 C48         10.8070     0.5090    -1.3670 c3         1 CRO      -0.017979
     99 C51         12.1690     1.2230    -1.4300 c3         1 CRO      -0.058380
    100 H23         10.4820     0.4300    -2.3980 hc         1 CRO       0.034972
    101 H41         12.6580     1.2420    -0.4490 hc         1 CRO       0.023657
    102 H44         12.0520     2.2570    -1.7710 hc         1 CRO       0.023657
    103 H47         12.8450     0.7330    -2.1390 hc         1 CRO       0.023657
    104 H50         13.0260    -1.2140    -1.0820 ha         1 CRO       0.062571
    105 H53         10.9380    -4.6840     0.2970 ha         1 CRO       0.062269
    106 H56         13.0430    -3.5410    -0.3480 ha         1 CRO       0.062279
    107 H59          8.7300    -1.1410    -0.5890 ha         1 CRO       0.062571
    108 H62          8.7860    -3.4540     0.1710 ha         1 CRO       0.062279
    109 C31        -12.3300    -1.1580    -2.7540 ca         1 CRO      -0.044115
    110 C34        -13.6180    -1.7090    -2.8960 ca         1 CRO      -0.058737
    111 C37        -13.8600    -3.0550    -2.6240 ca         1 CRO      -0.061983
    112 C40        -12.8170    -3.8750    -2.2070 ca         1 CRO      -0.062248
    113 C43        -11.5360    -3.3470    -2.0590 ca         1 CRO      -0.061983
    114 C46        -11.2920    -1.9970    -2.3280 ca         1 CRO      -0.058737
    115 C49        -12.1260     0.3220    -3.0570 c3         1 CRO      -0.004518
    116 C52        -10.8980     0.5630    -3.9540 c3         1 CRO      -0.057374
    117 H36        -12.9720     0.5820    -3.7120 hc         1 CRO       0.036039
    118 H42         -9.9570     0.3120    -3.4550 hc         1 CRO       0.023691
    119 H45        -10.8430     1.6110    -4.2680 hc         1 CRO       0.023691
    120 H48        -10.9570    -0.0500    -4.8610 hc         1 CRO       0.023691
    121 H51        -10.2820    -1.6170    -2.2030 ha         1 CRO       0.062571
    122 H54        -13.0020    -4.9260    -1.9970 ha         1 CRO       0.062269
    123 H57        -10.7220    -3.9910    -1.7350 ha         1 CRO       0.062279
    124 H60        -14.4500    -1.0860    -3.2200 ha         1 CRO       0.062571
    125 H63        -14.8610    -3.4610    -2.7400 ha         1 CRO       0.062279
@<TRIPOS>BOND
     1    73    71 1   
     2    74    71 1   
     3    71    72 1   
     4    71    65 1   
     5    50    49 1   
     6    52    49 1   
     7    49    51 1   
     8    49    44 1   
     9    65    64 1   
    10    65    66 1   
    11    68    66 1   
    12    44    43 1   
    13    44    46 1   
    14    64    70 2   
    15    64    61 1   
    16    66    69 1   
    17    66    67 1   
    18    47    46 1   
    19    61    57 1   
    20    59    54 1   
    21    62    57 1   
    22    38    33 1   
    23    43    40 1   
    24    43    45 2   
    25    46    48 1   
    26    40    36 1   
    27    57    54 1   
    28    57    63 1   
    29    42    36 1   
    30    54    58 1   
    31    54    53 1   
    32    60    58 1   
    33    39    37 1   
    34    36    33 1   
    35    36    41 1   
    36    33    37 1   
    37    33    32 1   
    38    55    53 1   
    39    27    12 1   
    40    24    20 1   
    41    31    53 1   
    42    31    19 1   
    43    53    56 1   
    44    30    32 1   
    45    30    13 1   
    46    34    32 1   
    47    32    35 1   
    48    12    13 ar  
    49    12    11 ar  
    50    20    19 ar  
    51    20    21 ar  
    52    19    18 ar  
    53    13    14 ar  
    54    26    11 1   
    55    11    10 ar  
    56    25    21 1   
    57    21    16 ar  
    58    18    23 1   
    59    18    17 ar  
    60    14    28 1   
    61    14    15 ar  
    62    16    17 ar  
    63    16     1 1   
    64    10    15 ar  
    65    10     1 1   
    66    17    22 1   
    67    15    29 1   
    68     1     2 1   
    69     1     6 1   
    70     5     2 1   
    71     8     6 1   
    72     2     3 1   
    73     2     4 1   
    74     6     9 1   
    75     6     7 1   
    76    83    81 1   
    77    86    82 1   
    78    90    76 1   
    79    76    75 ar  
    80    76    77 ar  
    81    81    75 1   
    82    81    82 1   
    83    85    82 1   
    84    91    77 1   
    85    75    80 ar  
    86    77    78 ar  
    87    82    84 1   
    88    78    88 1   
    89    78    79 ar  
    90    80    79 ar  
    91    80    87 1   
    92    79    89 1   
    93   100    98 1   
    94   103    99 1   
    95   107    93 1   
    96    93    92 ar  
    97    93    94 ar  
    98    98    92 1   
    99    98    99 1   
   100   102    99 1   
   101   108    94 1   
   102    92    97 ar  
   103    94    95 ar  
   104    99   101 1   
   105    95   105 1   
   106    95    96 ar  
   107    97    96 ar  
   108    97   104 1   
   109    96   106 1   
   110   117   115 1   
   111   120   116 1   
   112   124   110 1   
   113   110   109 ar  
   114   110   111 ar  
   115   115   109 1   
   116   115   116 1   
   117   119   116 1   
   118   125   111 1   
   119   109   114 ar  
   120   111   112 ar  
   121   116   118 1   
   122   112   122 1   
   123   112   113 ar  
   124   114   113 ar  
   125   114   121 1   
   126   113   123 1   
   127    81    44 1   
   128    98    46 1   
   129   115    65 1   
@<TRIPOS>SUBSTRUCTURE
     1 VEA         1 TEMP              0 ****  ****    0 ROOT
