@<TRIPOS>MOLECULE
*****
 125 129 0 0 0
SMALL
GASTEIGER
@<TRIPOS>ATOM
      1 C             25.14     24.12     28.38  C.3    1  VEA        0.0151
      2 C1            25.36     25.39     29.26  C.3    1  VEA       -0.0517
      3 H             26.29      25.3     29.83    H    1  VEA        0.0241
      4 H1            24.54     25.52     29.97    H    1  VEA        0.0241
      5 H2            25.43     26.29     28.64    H    1  VEA        0.0241
      6 C2            24.92     22.94     29.36  C.3    1  VEA       -0.0517
      7 H3            25.71     22.89     30.12    H    1  VEA        0.0241
      8 H4            24.89     21.98     28.82    H    1  VEA        0.0241
      9 H5            23.96     23.05     29.88    H    1  VEA        0.0241
     10 C3             26.4     23.96     27.52 C.ar    1  VEA       -0.0372
     11 C4            26.59     24.81     26.41 C.ar    1  VEA       -0.0543
     12 C5            27.76     24.75     25.63 C.ar    1  VEA       -0.0197
     13 C6            28.77     23.84     25.95 C.ar    1  VEA        0.1206
     14 C7             28.6     22.98     27.05 C.ar    1  VEA       -0.0197
     15 C8            27.43     23.04     27.83 C.ar    1  VEA       -0.0543
     16 C9            23.89     24.21     27.49 C.ar    1  VEA       -0.0372
     17 C10           22.93     25.24     27.62 C.ar    1  VEA       -0.0543
     18 C11           21.77     25.25     26.82 C.ar    1  VEA       -0.0197
     19 C12           21.55     24.22     25.88 C.ar    1  VEA        0.1206
     20 C13            22.5      23.2     25.74 C.ar    1  VEA       -0.0197
     21 C14           23.66      23.2     26.54 C.ar    1  VEA       -0.0543
     22 H6            23.05     26.04     28.34    H    1  VEA        0.0622
     23 H7            21.05     26.05     26.95    H    1  VEA        0.0654
     24 H8            22.33     22.41     25.02    H    1  VEA        0.0654
     25 H9            24.37     22.39     26.42    H    1  VEA        0.0622
     26 H10           25.82     25.54     26.15    H    1  VEA        0.0622
     27 H11           27.88     25.41     24.78    H    1  VEA        0.0654
     28 H12           29.36     22.26     27.33    H    1  VEA        0.0654
     29 H13           27.34     22.38     28.68    H    1  VEA        0.0622
     30 O             29.92     23.84     25.19  O.3    1  VEA       -0.4893
     31 O1            20.42     24.17     25.09  O.3    1  VEA       -0.4893
     32 C15           31.11     23.13     25.57  C.3    1  VEA        0.1186
     33 C16           32.25     23.45     24.57  C.3    1  VEA        0.1230
     34 H14           30.92     22.05     25.56    H    1  VEA        0.0724
     35 H15           31.42     23.43     26.58    H    1  VEA        0.0724
     36 C17           32.55     24.96     24.53  C.3    1  VEA        0.1215
     37 O2            33.43     22.75     24.96  O.3    1  VEA       -0.3850
     38 H16           31.94     23.12     23.57    H    1  VEA        0.0662
     39 H17           34.15     23.18     24.46    H    1  VEA        0.2101
     40 O3            33.73     25.16     23.72  O.3    1  VEA       -0.4617
     41 H18           32.71     25.34     25.54    H    1  VEA        0.0725
     42 H19            31.7      25.5     24.09    H    1  VEA        0.0725
     43 C18           34.18     26.44     23.58  C.2    1  VEA        0.3097
     44 C19           35.45      26.5     22.72  C.3    1  VEA        0.0508
     45 O4            33.65     27.42     24.07  O.2    1  VEA       -0.2506
     46 C20           36.65     26.95     23.58  C.3    1  VEA       -0.0525
     47 H21           37.57     26.96     22.99    H    1  VEA        0.0237
     48 H22           36.79     26.27     24.43    H    1  VEA        0.0237
     49 C21           35.24     27.44     21.51  C.3    1  VEA       -0.0525
     50 H23           35.65     25.49     22.34    H    1  VEA        0.0408
     51 H24           36.14     27.45     20.88    H    1  VEA        0.0237
     52 H25           35.04     28.47     21.85    H    1  VEA        0.0237
     53 H26           34.39     27.11      20.9    H    1  VEA        0.0237
     54 C22            19.4     25.18     25.12  C.3    1  VEA        0.1186
     55 C23           18.24     24.76     24.19  C.3    1  VEA        0.1230
     56 H27           19.82     26.13     24.77    H    1  VEA        0.0724
     57 H28           19.01     25.31     26.14    H    1  VEA        0.0724
     58 C24            17.3     25.95      23.9  C.3    1  VEA        0.1215
     59 O5            17.46     23.73     24.81  O.3    1  VEA       -0.3850
     60 H29           18.65     24.41     23.23    H    1  VEA        0.0662
     61 H30           16.65     23.66     24.27    H    1  VEA        0.2101
     62 O6            16.18     25.48     23.12  O.3    1  VEA       -0.4617
     63 H31           17.84     26.73     23.34    H    1  VEA        0.0725
     64 H32           16.94     26.39     24.84    H    1  VEA        0.0725
     65 C25           15.22     26.39     22.78  C.2    1  VEA        0.3097
     66 C26           14.09     25.74     21.98  C.3    1  VEA        0.0508
     67 C27           12.77      25.8     22.79  C.3    1  VEA       -0.0525
     68 H34           11.96      25.3     22.25    H    1  VEA        0.0237
     69 H35           12.48     26.84     22.97    H    1  VEA        0.0237
     70 O7            15.26     27.57     23.07  O.2    1  VEA       -0.2506
     71 C28           13.93     26.42     20.61  C.3    1  VEA       -0.0525
     72 H37           13.67     27.48     20.73    H    1  VEA        0.0237
     73 H38           13.14     25.93     20.02    H    1  VEA        0.0237
     74 H39           14.87     26.36     20.04    H    1  VEA        0.0237
     75 C             35.29     23.93      22.1 C.ar    1 CRO0       -0.0476
     76 C1            34.12     23.16     22.08 C.ar    1 CRO0       -0.0586
     77 C2            34.18     21.76      22.1 C.ar    1 CRO0       -0.0615
     78 C3            35.43     21.11     22.14 C.ar    1 CRO0       -0.0617
     79 C4            36.61     21.88     22.17 C.ar    1 CRO0       -0.0615
     80 C5            36.54     23.28     22.15 C.ar    1 CRO0       -0.0586
     81 C6            35.15     25.45     22.08  C.3    1 CRO0       -0.0305
     82 C7            36.46     26.26     22.11  C.3    1 CRO0       -0.0613
     83 H1            34.59     25.74     21.18    H    1 CRO0        0.0311
     84 H2            37.03     26.04     23.02    H    1 CRO0        0.0233
     85 H3            36.25     27.33     22.08    H    1 CRO0        0.0233
     86 H4            37.09     26.02     21.24    H    1 CRO0        0.0233
     87 H5            37.47     23.84     22.17    H    1 CRO0        0.0620
     88 H6            35.48     20.03     22.16    H    1 CRO0        0.0618
     89 H7            37.57     21.38     22.21    H    1 CRO0        0.0618
     90 H8            33.15     23.64     22.04    H    1 CRO0        0.0620
     91 H9            33.27     21.17     22.08    H    1 CRO0        0.0618
     92 C             12.23     22.22      20.0 C.ar    1 CRO1       -0.0476
     93 C1            11.06     21.45     19.98 C.ar    1 CRO1       -0.0586
     94 C2            11.12     20.05      20.0 C.ar    1 CRO1       -0.0615
     95 C3            12.37      19.4     20.04 C.ar    1 CRO1       -0.0617
     96 C4            13.55     20.17     20.07 C.ar    1 CRO1       -0.0615
     97 C5            13.48     21.57     20.05 C.ar    1 CRO1       -0.0586
     98 C6            12.09     23.74     19.98  C.3    1 CRO1       -0.0305
     99 C7             13.4     24.55     20.01  C.3    1 CRO1       -0.0613
    100 H1            11.53     24.03     19.08    H    1 CRO1        0.0311
    101 H2            13.97     24.33     20.92    H    1 CRO1        0.0233
    102 H3            13.19     25.62     19.98    H    1 CRO1        0.0233
    103 H4            14.03     24.31     19.14    H    1 CRO1        0.0233
    104 H5            14.41     22.13     20.07    H    1 CRO1        0.0620
    105 H6            12.42     18.32     20.06    H    1 CRO1        0.0618
    106 H7            14.51     19.67     20.11    H    1 CRO1        0.0618
    107 H8            10.09     21.93     19.94    H    1 CRO1        0.0620
    108 H9            10.21     19.46     19.98    H    1 CRO1        0.0618
    109 C             10.41     21.78     20.31 C.ar    1 CRO2       -0.0476
    110 C1             9.24     21.01     20.29 C.ar    1 CRO2       -0.0586
    111 C2              9.3     19.61     20.31 C.ar    1 CRO2       -0.0615
    112 C3            10.55     18.96     20.35 C.ar    1 CRO2       -0.0617
    113 C4            11.73     19.73     20.38 C.ar    1 CRO2       -0.0615
    114 C5            11.66     21.13     20.36 C.ar    1 CRO2       -0.0586
    115 C6            10.27      23.3     20.29  C.3    1 CRO2       -0.0305
    116 C7            11.58     24.11     20.32  C.3    1 CRO2       -0.0613
    117 H1             9.71     23.59     19.39    H    1 CRO2        0.0311
    118 H2            12.15     23.89     21.23    H    1 CRO2        0.0233
    119 H3            11.37     25.18     20.29    H    1 CRO2        0.0233
    120 H4            12.21     23.87     19.45    H    1 CRO2        0.0233
    121 H5            12.59     21.69     20.38    H    1 CRO2        0.0620
    122 H6             10.6     17.88     20.37    H    1 CRO2        0.0618
    123 H7            12.69     19.23     20.42    H    1 CRO2        0.0618
    124 H8             8.27     21.49     20.25    H    1 CRO2        0.0620
    125 H9             8.39     19.02     20.29    H    1 CRO2        0.0618
@<TRIPOS>BOND
     1    73    71    1
     2    74    71    1
     3    71    72    1
     4    71    66    1
     5    51    49    1
     6    53    49    1
     7    49    52    1
     8    49    44    1
     9    66    65    1
    10    66    67    1
    11    68    67    1
    12    50    44    1
    13    44    43    1
    14    44    46    1
    15    65    70    2
    16    65    62    1
    17    67    69    1
    18    47    46    1
    19    62    58    1
    20    60    55    1
    21    63    58    1
    22    38    33    1
    23    43    40    1
    24    43    45    2
    25    46    48    1
    26    40    36    1
    27    58    55    1
    28    58    64    1
    29    42    36    1
    30    55    59    1
    31    55    54    1
    32    61    59    1
    33    39    37    1
    34    36    33    1
    35    36    41    1
    36    33    37    1
    37    33    32    1
    38    56    54    1
    39    27    12    1
    40    24    20    1
    41    31    54    1
    42    31    19    1
    43    54    57    1
    44    30    32    1
    45    30    13    1
    46    34    32    1
    47    32    35    1
    48    12    13   ar
    49    12    11   ar
    50    20    19   ar
    51    20    21   ar
    52    19    18   ar
    53    13    14   ar
    54    26    11    1
    55    11    10   ar
    56    25    21    1
    57    21    16   ar
    58    18    23    1
    59    18    17   ar
    60    14    28    1
    61    14    15   ar
    62    16    17   ar
    63    16     1    1
    64    10    15   ar
    65    10     1    1
    66    17    22    1
    67    15    29    1
    68     1     2    1
    69     1     6    1
    70     5     2    1
    71     8     6    1
    72     2     3    1
    73     2     4    1
    74     6     9    1
    75     6     7    1
    76    83    81    1
    77    86    82    1
    78    90    76    1
    79    76    75   ar
    80    76    77   ar
    81    81    75    1
    82    81    82    1
    83    85    82    1
    84    91    77    1
    85    75    80   ar
    86    77    78   ar
    87    82    84    1
    88    78    88    1
    89    78    79   ar
    90    80    79   ar
    91    80    87    1
    92    79    89    1
    93   100    98    1
    94   103    99    1
    95   107    93    1
    96    93    92   ar
    97    93    94   ar
    98    98    92    1
    99    98    99    1
   100   102    99    1
   101   108    94    1
   102    92    97   ar
   103    94    95   ar
   104    99   101    1
   105    95   105    1
   106    95    96   ar
   107    97    96   ar
   108    97   104    1
   109    96   106    1
   110   117   115    1
   111   120   116    1
   112   124   110    1
   113   110   109   ar
   114   110   111   ar
   115   115   109    1
   116   115   116    1
   117   119   116    1
   118   125   111    1
   119   109   114   ar
   120   111   112   ar
   121   116   118    1
   122   112   122    1
   123   112   113   ar
   124   114   113   ar
   125   114   121    1
   126   113   123    1
   127    81    46    1
   128    98    66    1
   129   115    67    1
