@<TRIPOS>MOLECULE
*****
   93    95     1     0     0
SMALL
gas


@<TRIPOS>ATOM
      1 C           -1.7960    -0.5830     3.9730 c3         1 VEA       0.014609
      2 C1          -1.5910     0.6940     4.8290 c3         1 VEA      -0.051690
      3 H           -0.6790     0.6220     5.4360 hc         1 VEA       0.024276
      4 H1          -2.4250     0.8540     5.5230 hc         1 VEA       0.024276
      5 H2          -1.4940     1.5960     4.2130 hc         1 VEA       0.024276
      6 C2          -2.0290    -1.7410     4.9790 c3         1 VEA      -0.051690
      7 H3          -1.2380    -1.7850     5.7370 hc         1 VEA       0.024276
      8 H4          -2.0660    -2.7190     4.4850 hc         1 VEA       0.024276
      9 H5          -2.9770    -1.6130     5.5150 hc         1 VEA       0.024276
     10 C3          -0.5070    -0.7440     3.1310 ca         1 VEA      -0.037779
     11 C4          -0.2770     0.1150     2.0400 ca         1 VEA      -0.055557
     12 C5           0.8880     0.0190     1.2750 ca         1 VEA      -0.031490
     13 C6           1.8660    -0.9230     1.5860 ca         1 VEA       0.075038
     14 C7           1.6570    -1.7870     2.6560 ca         1 VEA      -0.031490
     15 C8           0.4840    -1.6970     3.4210 ca         1 VEA      -0.055557
     16 C9          -3.0540    -0.5280     3.0720 ca         1 VEA      -0.037779
     17 C10         -3.9760     0.5310     3.1080 ca         1 VEA      -0.055557
     18 C11         -5.1150     0.5360     2.2880 ca         1 VEA      -0.031490
     19 C12         -5.3620    -0.5210     1.4170 ca         1 VEA       0.075038
     20 C13         -4.4530    -1.5750     1.3610 ca         1 VEA      -0.031490
     21 C14         -3.3160    -1.5820     2.1760 ca         1 VEA      -0.055557
     22 H6          -3.8380     1.3770     3.7750 ha         1 VEA       0.062694
     23 H7          -5.7870     1.3840     2.3630 ha         1 VEA       0.065055
     24 H8          -4.6310    -2.4050     0.6820 ha         1 VEA       0.065055
     25 H9          -2.6300    -2.4240     2.1000 ha         1 VEA       0.062694
     26 H10         -1.0110     0.8730     1.7700 ha         1 VEA       0.062694
     27 H11          1.0340     0.6940     0.4360 ha         1 VEA       0.065055
     28 H12          2.3840    -2.5480     2.9230 ha         1 VEA       0.065055
     29 H13          0.3740    -2.3890     4.2510 ha         1 VEA       0.062694
     30 O            2.9570    -0.9040     0.7670 os         1 VEA      -0.343351
     31 O1          -6.4350    -0.6430     0.5780 os         1 VEA      -0.343351
     32 C15          4.1130    -1.6260     1.1930 c3         1 VEA       0.081544
     33 C16          5.2700    -1.2730     0.2530 c3         1 VEA       0.101764
     34 H14          3.9220    -2.7050     1.1430 h1         1 VEA       0.060081
     35 H15          4.3850    -1.3680     2.2240 h1         1 VEA       0.060081
     36 C17          5.6500     0.2080     0.3690 c3         1 VEA       0.084596
     37 O2           6.4080    -2.0870     0.5630 oh         1 VEA      -0.388274
     38 H16          4.9850    -1.4940    -0.7820 h1         1 VEA       0.065019
     39 H17          7.1090    -1.8260    -0.0670 ho         1 VEA       0.210692
     40 O3           6.5590     0.5140    -0.7040 os         1 VEA      -0.312973
     41 H18          6.1550     0.3970     1.3230 h1         1 VEA       0.060196
     42 H19          4.7660     0.8480     0.2750 h1         1 VEA       0.060196
     43 C18          6.9350     1.8230    -0.7600 c          1 VEA       0.263728
     44 C19          7.7450     2.0690    -2.0200 c3         1 VEA       0.042890
     45 O4           6.6370     2.6740     0.0660 o          1 VEA      -0.266321
     46 C20          9.2020     1.6020    -1.8360 c3         1 VEA      -0.034642
     47 H21          9.8550     2.4840    -1.8140 hc         1 VEA       0.028082
     48 H22          9.3370     1.1110    -0.8630 hc         1 VEA       0.028082
     49 C21          7.6830     3.5470    -2.4090 c3         1 VEA      -0.053050
     50 H23          7.2420     1.5190    -2.8240 hc         1 VEA       0.040673
     51 H24          8.2130     3.7210    -3.3510 hc         1 VEA       0.023856
     52 H25          8.1340     4.1840    -1.6400 hc         1 VEA       0.023856
     53 H26          6.6450     3.8730    -2.5390 hc         1 VEA       0.023856
     54 C22         -7.4440     0.3700     0.6550 c3         1 VEA       0.081544
     55 C23         -8.6150    -0.0420    -0.2460 c3         1 VEA       0.101764
     56 H27         -7.0200     1.3180     0.3050 h1         1 VEA       0.060081
     57 H28         -7.8000     0.4650     1.6880 h1         1 VEA       0.060081
     58 C24         -9.5690     1.1300    -0.4830 c3         1 VEA       0.084596
     59 O5          -9.3480    -1.1080     0.3810 oh         1 VEA      -0.388274
     60 H29         -8.2480    -0.4380    -1.2000 h1         1 VEA       0.065019
     61 H30        -10.0880    -1.3170    -0.2160 ho         1 VEA       0.210692
     62 O6         -10.6340     0.6720    -1.3380 os         1 VEA      -0.312982
     63 H31         -9.0400     1.9600    -0.9660 h1         1 VEA       0.060196
     64 H32        -10.0060     1.4610     0.4670 h1         1 VEA       0.060196
     65 C25        -11.5340     1.6400    -1.6720 c          1 VEA       0.263425
     66 C26        -12.6480     1.0560    -2.5160 c3         1 VEA       0.039496
     67 C27        -13.9500     1.0830    -1.7230 c3         1 VEA      -0.053343
     68 H33        -13.8430     0.5320    -0.7830 hc         1 VEA       0.023845
     69 H34        -14.7640     0.6260    -2.2950 hc         1 VEA       0.023845
     70 H35        -14.2440     2.1080    -1.4720 hc         1 VEA       0.023845
     71 O7         -11.4600     2.8110    -1.3250 o          1 VEA      -0.266333
     72 C28        -12.7690     1.8300    -3.8230 c3         1 VEA      -0.053343
     73 H36        -12.4040     0.0140    -2.7550 hc         1 VEA       0.040359
     74 H37        -13.0290     2.8790    -3.6460 hc         1 VEA       0.023845
     75 H38        -13.5410     1.3920    -4.4640 hc         1 VEA       0.023845
     76 H39        -11.8220     1.8130    -4.3720 hc         1 VEA       0.023845
     77 C29          9.2850    -0.7870    -2.6710 ca         1 CRO      -0.045167
     78 C30          8.0890    -1.3150    -3.1810 ca         1 CRO      -0.058776
     79 C31          7.7120    -2.6320    -2.9070 ca         1 CRO      -0.061988
     80 C32          8.5280    -3.4440    -2.1250 ca         1 CRO      -0.062252
     81 C33          9.7160    -2.9370    -1.6080 ca         1 CRO      -0.061988
     82 C34         10.0880    -1.6160    -1.8720 ca         1 CRO      -0.058776
     83 C35          9.6650     0.6580    -2.9710 c3         1 CRO      -0.018271
     84 C36         11.1680     0.8350    -3.2330 c3         1 CRO      -0.058391
     85 H20          9.1730     0.9520    -3.9090 hc         1 CRO       0.034963
     86 H40         11.7650     0.6950    -2.3260 hc         1 CRO       0.023657
     87 H41         11.3700     1.8470    -3.6020 hc         1 CRO       0.023657
     88 H42         11.5230     0.1290    -3.9910 hc         1 CRO       0.023657
     89 H43         11.0180    -1.2500    -1.4440 ha         1 CRO       0.062575
     90 H44          8.2380    -4.4710    -1.9170 ha         1 CRO       0.062273
     91 H45         10.3570    -3.5690    -0.9990 ha         1 CRO       0.062283
     92 H46          7.4360    -0.7040    -3.8000 ha         1 CRO       0.062575
     93 H47          6.7810    -3.0250    -3.3080 ha         1 CRO       0.062283
@<TRIPOS>BOND
     1    75    72 1   
     2    76    72 1   
     3    72    74 1   
     4    72    66 1   
     5    51    49 1   
     6    53    49 1   
     7    49    52 1   
     8    49    44 1   
     9    73    66 1   
    10    66    65 1   
    11    66    67 1   
    12    69    67 1   
    13    50    44 1   
    14    44    43 1   
    15    44    46 1   
    16    65    71 2   
    17    65    62 1   
    18    67    70 1   
    19    67    68 1   
    20    47    46 1   
    21    62    58 1   
    22    60    55 1   
    23    63    58 1   
    24    38    33 1   
    25    43    40 1   
    26    43    45 2   
    27    46    48 1   
    28    40    36 1   
    29    58    55 1   
    30    58    64 1   
    31    42    36 1   
    32    55    59 1   
    33    55    54 1   
    34    61    59 1   
    35    39    37 1   
    36    36    33 1   
    37    36    41 1   
    38    33    37 1   
    39    33    32 1   
    40    56    54 1   
    41    27    12 1   
    42    24    20 1   
    43    31    54 1   
    44    31    19 1   
    45    54    57 1   
    46    30    32 1   
    47    30    13 1   
    48    34    32 1   
    49    32    35 1   
    50    12    13 ar  
    51    12    11 ar  
    52    20    19 ar  
    53    20    21 ar  
    54    19    18 ar  
    55    13    14 ar  
    56    26    11 1   
    57    11    10 ar  
    58    25    21 1   
    59    21    16 ar  
    60    18    23 1   
    61    18    17 ar  
    62    14    28 1   
    63    14    15 ar  
    64    16    17 ar  
    65    16     1 1   
    66    10    15 ar  
    67    10     1 1   
    68    17    22 1   
    69    15    29 1   
    70     1     2 1   
    71     1     6 1   
    72     5     2 1   
    73     8     6 1   
    74     2     3 1   
    75     2     4 1   
    76     6     9 1   
    77     6     7 1   
    78    85    83 1   
    79    88    84 1   
    80    92    78 1   
    81    78    77 ar  
    82    78    79 ar  
    83    83    77 1   
    84    83    84 1   
    85    87    84 1   
    86    93    79 1   
    87    77    82 ar  
    88    79    80 ar  
    89    84    86 1   
    90    80    90 1   
    91    80    81 ar  
    92    82    81 ar  
    93    82    89 1   
    94    81    91 1   
    95    83    46 1   
@<TRIPOS>SUBSTRUCTURE
     1 VEA         1 TEMP              0 ****  ****    0 ROOT
