@<TRIPOS>MOLECULE
*****
 93 95 0 0 0
SMALL
GASTEIGER

@<TRIPOS>ATOM
      1 C          -1.7957   -0.5830    3.9727 C.3     1  VEA1        0.0151
      2 C1         -1.5906    0.6941    4.8294 C.3     1  VEA1       -0.0517
      3 H          -0.6788    0.6215    5.4356 H       1  VEA1        0.0241
      4 H1         -2.4248    0.8544    5.5229 H       1  VEA1        0.0241
      5 H2         -1.4937    1.5956    4.2125 H       1  VEA1        0.0241
      6 C2         -2.0285   -1.7408    4.9791 C.3     1  VEA1       -0.0517
      7 H3         -1.2378   -1.7852    5.7374 H       1  VEA1        0.0241
      8 H4         -2.0655   -2.7190    4.4851 H       1  VEA1        0.0241
      9 H5         -2.9774   -1.6127    5.5153 H       1  VEA1        0.0241
     10 C3         -0.5071   -0.7442    3.1305 C.ar    1  VEA1       -0.0372
     11 C4         -0.2774    0.1151    2.0397 C.ar    1  VEA1       -0.0543
     12 C5          0.8877    0.0191    1.2752 C.ar    1  VEA1       -0.0197
     13 C6          1.8656   -0.9232    1.5859 C.ar    1  VEA1        0.1206
     14 C7          1.6574   -1.7873    2.6563 C.ar    1  VEA1       -0.0197
     15 C8          0.4844   -1.6967    3.4213 C.ar    1  VEA1       -0.0543
     16 C9         -3.0542   -0.5284    3.0719 C.ar    1  VEA1       -0.0372
     17 C10        -3.9762    0.5307    3.1080 C.ar    1  VEA1       -0.0543
     18 C11        -5.1148    0.5364    2.2883 C.ar    1  VEA1       -0.0197
     19 C12        -5.3620   -0.5206    1.4166 C.ar    1  VEA1        0.1206
     20 C13        -4.4528   -1.5750    1.3614 C.ar    1  VEA1       -0.0197
     21 C14        -3.3163   -1.5818    2.1757 C.ar    1  VEA1       -0.0543
     22 H6         -3.8379    1.3774    3.7747 H       1  VEA1        0.0622
     23 H7         -5.7873    1.3842    2.3633 H       1  VEA1        0.0654
     24 H8         -4.6310   -2.4047    0.6817 H       1  VEA1        0.0654
     25 H9         -2.6301   -2.4235    2.0997 H       1  VEA1        0.0622
     26 H10        -1.0113    0.8726    1.7701 H       1  VEA1        0.0622
     27 H11         1.0341    0.6940    0.4358 H       1  VEA1        0.0654
     28 H12         2.3838   -2.5483    2.9226 H       1  VEA1        0.0654
     29 H13         0.3744   -2.3892    4.2514 H       1  VEA1        0.0622
     30 O           2.9566   -0.9043    0.7666 O.3     1  VEA1       -0.4893
     31 O1         -6.4346   -0.6429    0.5783 O.3     1  VEA1       -0.4893
     32 C15         4.1129   -1.6264    1.1926 C.3     1  VEA1        0.1186
     33 C16         5.2700   -1.2731    0.2534 C.3     1  VEA1        0.1230
     34 H14         3.9225   -2.7055    1.1429 H       1  VEA1        0.0724
     35 H15         4.3849   -1.3678    2.2242 H       1  VEA1        0.0724
     36 C17         5.6501    0.2077    0.3690 C.3     1  VEA1        0.1215
     37 O2          6.4078   -2.0868    0.5631 O.3     1  VEA1       -0.3850
     38 H16         4.9846   -1.4945   -0.7822 H       1  VEA1        0.0662
     39 H17         7.1095   -1.8260   -0.0665 H       1  VEA1        0.2101
     40 O3          6.5590    0.5145   -0.7038 O.3     1  VEA1       -0.4617
     41 H18         6.1551    0.3970    1.3235 H       1  VEA1        0.0725
     42 H19         4.7659    0.8477    0.2752 H       1  VEA1        0.0725
     43 C18         6.9348    1.8231   -0.7604 C.2     1  VEA1        0.3097
     44 C19         7.7445    2.0688   -2.0196 C.3     1  VEA1        0.0508
     45 O4          6.6374    2.6744    0.0655 O.2     1  VEA1       -0.2506
     46 C20         9.2018    1.6016   -1.8364 C.3     1  VEA1       -0.0525
     47 H21         9.8553    2.4836   -1.8138 H       1  VEA1        0.0237
     48 H22         9.3369    1.1110   -0.8633 H       1  VEA1        0.0237
     49 C21         7.6830    3.5470   -2.4092 C.3     1  VEA1       -0.0525
     50 H23         7.2421    1.5187   -2.8243 H       1  VEA1        0.0408
     51 H24         8.2135    3.7214   -3.3512 H       1  VEA1        0.0237
     52 H25         8.1338    4.1842   -1.6400 H       1  VEA1        0.0237
     53 H26         6.6452    3.8727   -2.5392 H       1  VEA1        0.0237
     54 C22        -7.4445    0.3699    0.6547 C.3     1  VEA1        0.1186
     55 C23        -8.6150   -0.0418   -0.2463 C.3     1  VEA1        0.1230
     56 H27        -7.0201    1.3182    0.3050 H       1  VEA1        0.0724
     57 H28        -7.8001    0.4645    1.6881 H       1  VEA1        0.0724
     58 C24        -9.5690    1.1302   -0.4830 C.3     1  VEA1        0.1215
     59 O5         -9.3475   -1.1080    0.3812 O.3     1  VEA1       -0.3850
     60 H29        -8.2479   -0.4378   -1.2002 H       1  VEA1        0.0662
     61 H30       -10.0882   -1.3172   -0.2163 H       1  VEA1        0.2101
     62 O6        -10.6343    0.6722   -1.3382 O.3     1  VEA1       -0.4617
     63 H31        -9.0398    1.9598   -0.9657 H       1  VEA1        0.0725
     64 H32       -10.0062    1.4610    0.4666 H       1  VEA1        0.0725
     65 C25       -11.5335    1.6404   -1.6719 C.2     1  VEA1        0.3097
     66 C26       -12.6484    1.0559   -2.5156 C.3     1  VEA1        0.0508
     67 C27       -13.9497    1.0834   -1.7233 C.3     1  VEA1       -0.0525
     68 H33       -13.8434    0.5321   -0.7826 H       1  VEA1        0.0237
     69 H34       -14.7641    0.6265   -2.2949 H       1  VEA1        0.0237
     70 H35       -14.2436    2.1085   -1.4716 H       1  VEA1        0.0237
     71 O7        -11.4605    2.8112   -1.3249 O.2     1  VEA1       -0.2506
     72 C28       -12.7690    1.8298   -3.8228 C.3     1  VEA1       -0.0525
     73 H36       -12.4043    0.0136   -2.7552 H       1  VEA1        0.0408
     74 H37       -13.0286    2.8794   -3.6460 H       1  VEA1        0.0237
     75 H38       -13.5415    1.3923   -4.4638 H       1  VEA1        0.0237
     76 H39       -11.8216    1.8129   -4.3723 H       1  VEA1        0.0237
     77 C           9.2854   -0.7868   -2.6712 C.ar    1  CRO01      -0.0476
     78 C1          8.0889   -1.3153   -3.1813 C.ar    1  CRO01      -0.0586
     79 C2          7.7115   -2.6321   -2.9073 C.ar    1  CRO01      -0.0615
     80 C3          8.5277   -3.4441   -2.1248 C.ar    1  CRO01      -0.0617
     81 C4          9.7161   -2.9365   -1.6082 C.ar    1  CRO01      -0.0615
     82 C5         10.0879   -1.6161   -1.8716 C.ar    1  CRO01      -0.0586
     83 C6          9.6651    0.6576   -2.9715 C.3     1  CRO01      -0.0305
     84 C7         11.1677    0.8353   -3.2331 C.3     1  CRO01      -0.0613
     85 H1          9.1731    0.9518   -3.9090 H       1  CRO01       0.0311
     86 H2         11.7652    0.6950   -2.3263 H       1  CRO01       0.0233
     87 H3         11.3702    1.8473   -3.6022 H       1  CRO01       0.0233
     88 H4         11.5231    0.1288   -3.9911 H       1  CRO01       0.0233
     89 H5         11.0179   -1.2497   -1.4444 H       1  CRO01       0.0620
     90 H6          8.2383   -4.4709   -1.9166 H       1  CRO01       0.0618
     91 H7         10.3575   -3.5689   -0.9992 H       1  CRO01       0.0618
     92 H8          7.4357   -0.7043   -3.8002 H       1  CRO01       0.0620
     93 H9          6.7807   -3.0254   -3.3080 H       1  CRO01       0.0618
@<TRIPOS>BOND
     1    75    72    1
     2    76    72    1
     3    72    74    1
     4    72    66    1
     5    51    49    1
     6    53    49    1
     7    49    52    1
     8    49    44    1
     9    73    66    1
    10    66    65    1
    11    66    67    1
    12    69    67    1
    13    50    44    1
    14    44    43    1
    15    44    46    1
    16    65    71    2
    17    65    62    1
    18    67    70    1
    19    67    68    1
    20    47    46    1
    21    62    58    1
    22    60    55    1
    23    63    58    1
    24    38    33    1
    25    43    40    1
    26    43    45    2
    27    46    48    1
    28    40    36    1
    29    58    55    1
    30    58    64    1
    31    42    36    1
    32    55    59    1
    33    55    54    1
    34    61    59    1
    35    39    37    1
    36    36    33    1
    37    36    41    1
    38    33    37    1
    39    33    32    1
    40    56    54    1
    41    27    12    1
    42    24    20    1
    43    31    54    1
    44    31    19    1
    45    54    57    1
    46    30    32    1
    47    30    13    1
    48    34    32    1
    49    32    35    1
    50    12    13   ar
    51    12    11   ar
    52    20    19   ar
    53    20    21   ar
    54    19    18   ar
    55    13    14   ar
    56    26    11    1
    57    11    10   ar
    58    25    21    1
    59    21    16   ar
    60    18    23    1
    61    18    17   ar
    62    14    28    1
    63    14    15   ar
    64    16    17   ar
    65    16     1    1
    66    10    15   ar
    67    10     1    1
    68    17    22    1
    69    15    29    1
    70     1     2    1
    71     1     6    1
    72     5     2    1
    73     8     6    1
    74     2     3    1
    75     2     4    1
    76     6     9    1
    77     6     7    1
    78    85    83    1
    79    88    84    1
    80    92    78    1
    81    78    77   ar
    82    78    79   ar
    83    83    77    1
    84    83    84    1
    85    87    84    1
    86    93    79    1
    87    77    82   ar
    88    79    80   ar
    89    84    86    1
    90    80    90    1
    91    80    81   ar
    92    82    81   ar
    93    82    89    1
    94    81    91    1
    95    83    46    1
