@<TRIPOS>MOLECULE
*****
   93    95     1     0     0
SMALL
gas


@<TRIPOS>ATOM
      1 C            1.9180    -0.3740     3.8850 c3         1 VEA       0.014609
      2 C1           2.0510     0.9340     4.7100 c3         1 VEA      -0.051690
      3 H            2.9620     0.9240     5.3230 hc         1 VEA       0.024276
      4 H1           1.2060     1.0690     5.3960 hc         1 VEA       0.024276
      5 H2           2.1050     1.8230     4.0690 hc         1 VEA       0.024276
      6 C2           1.7180    -1.5130     4.9220 c3         1 VEA      -0.051690
      7 H3           2.4950    -1.4990     5.6950 hc         1 VEA       0.024276
      8 H4           1.7340    -2.5050     4.4550 hc         1 VEA       0.024276
      9 H5           0.7550    -1.4130     5.4380 hc         1 VEA       0.024276
     10 C3           3.2310    -0.4990     3.0760 ca         1 VEA      -0.037779
     11 C4           3.4640     0.3490     1.9780 ca         1 VEA      -0.055557
     12 C5           4.6680     0.3000     1.2660 ca         1 VEA      -0.031490
     13 C6           5.6780    -0.5870     1.6340 ca         1 VEA       0.075038
     14 C7           5.4610    -1.4420     2.7110 ca         1 VEA      -0.031490
     15 C8           4.2540    -1.3970     3.4240 ca         1 VEA      -0.055557
     16 C9           0.6680    -0.4050     2.9710 ca         1 VEA      -0.037779
     17 C10         -0.3260     0.5850     3.0100 ca         1 VEA      -0.055557
     18 C11         -1.4820     0.4940     2.2200 ca         1 VEA      -0.031490
     19 C12         -1.6780    -0.5940     1.3710 ca         1 VEA       0.075038
     20 C13         -0.6900    -1.5750     1.3030 ca         1 VEA      -0.031490
     21 C14          0.4660    -1.4840     2.0890 ca         1 VEA      -0.055557
     22 H6          -0.2400     1.4470     3.6670 ha         1 VEA       0.062694
     23 H7          -2.2130     1.2900     2.3090 ha         1 VEA       0.065055
     24 H8          -0.8230    -2.4270     0.6410 ha         1 VEA       0.065055
     25 H9           1.2080    -2.2770     2.0130 ha         1 VEA       0.062694
     26 H10          2.7070     1.0660     1.6660 ha         1 VEA       0.062694
     27 H11          4.8190     0.9710     0.4230 ha         1 VEA       0.065055
     28 H12          6.2100    -2.1590     3.0320 ha         1 VEA       0.065055
     29 H13          4.1470    -2.0780     4.2640 ha         1 VEA       0.062694
     30 O            6.8120    -0.5240     0.8720 os         1 VEA      -0.343351
     31 O1          -2.7760    -0.8120     0.5790 os         1 VEA      -0.343351
     32 C15          7.9350    -1.2760     1.3300 c3         1 VEA       0.081544
     33 C16          9.1390    -1.0100     0.4240 c3         1 VEA       0.101764
     34 H14          7.7080    -2.3500     1.3040 h1         1 VEA       0.060081
     35 H15          8.1910    -1.0030     2.3620 h1         1 VEA       0.060081
     36 C17          9.5550     0.4650     0.4340 c3         1 VEA       0.084596
     37 O2          10.2400    -1.8200     0.8610 oh         1 VEA      -0.388274
     38 H16          8.9060    -1.3090    -0.6050 h1         1 VEA       0.065019
     39 H17         11.0080    -1.5380     0.3300 ho         1 VEA       0.210692
     40 O3          10.7040     0.5990    -0.4290 os         1 VEA      -0.312982
     41 H18          9.8480     0.7680     1.4460 h1         1 VEA       0.060196
     42 H19          8.7420     1.1010     0.0670 h1         1 VEA       0.060196
     43 C18         11.1590     1.8770    -0.5580 c          1 VEA       0.263425
     44 C19         12.3830     1.9110    -1.4520 c3         1 VEA       0.039496
     45 O4          10.6630     2.8560    -0.0180 o          1 VEA      -0.266333
     46 C20         13.6000     2.3150    -0.6280 c3         1 VEA      -0.053343
     47 H20         13.4830     3.3200    -0.2070 hc         1 VEA       0.023845
     48 H21         14.5070     2.3060    -1.2420 hc         1 VEA       0.023845
     49 H22         13.7490     1.6230     0.2080 hc         1 VEA       0.023845
     50 C21         12.1480     2.8670    -2.6150 c3         1 VEA      -0.053343
     51 H23         12.5530     0.9070    -1.8610 hc         1 VEA       0.040359
     52 H24         13.0070     2.8720    -3.2940 hc         1 VEA       0.023845
     53 H25         11.9860     3.8930    -2.2650 hc         1 VEA       0.023845
     54 H26         11.2630     2.5710    -3.1880 hc         1 VEA       0.023845
     55 C22         -3.8160     0.1700     0.6500 c3         1 VEA       0.081544
     56 C23         -5.0090    -0.2530    -0.2230 c3         1 VEA       0.101764
     57 H27         -3.4170     1.1240     0.2850 h1         1 VEA       0.060081
     58 H28         -4.1570     0.2700     1.6880 h1         1 VEA       0.060081
     59 C24         -5.9190     0.9550    -0.4630 c3         1 VEA       0.084607
     60 O5          -5.7590    -1.2790     0.4450 oh         1 VEA      -0.388274
     61 H29         -4.6710    -0.6790    -1.1740 h1         1 VEA       0.065019
     62 H30         -6.5690    -1.4210    -0.0800 ho         1 VEA       0.210692
     63 O6          -7.0700     0.5620    -1.2370 os         1 VEA      -0.312742
     64 H31         -5.3510     1.7320    -0.9880 h1         1 VEA       0.060196
     65 H32         -6.2860     1.3450     0.4940 h1         1 VEA       0.060196
     66 C25         -7.7600     1.6230    -1.7470 c          1 VEA       0.267164
     67 C26         -9.0700     1.2060    -2.4250 c3         1 VEA       0.057309
     68 C27        -10.0290     0.7320    -1.3150 c3         1 VEA      -0.049867
     69 H33         -9.6490    -0.1530    -0.7930 hc         1 VEA       0.024155
     70 H34        -11.0220     0.5010    -1.7130 hc         1 VEA       0.024155
     71 H35        -10.1550     1.5080    -0.5490 hc         1 VEA       0.024155
     72 O7          -7.3920     2.7870    -1.6280 o          1 VEA      -0.265976
     73 C28         -9.7010     2.4890    -3.0320 c3         1 VEA      -0.049867
     74 H37         -9.8740     3.2530    -2.2650 hc         1 VEA       0.024155
     75 H38        -10.6690     2.2730    -3.4990 hc         1 VEA       0.024155
     76 H39         -9.0520     2.9370    -3.7920 hc         1 VEA       0.024155
     77 C29         -9.0610    -1.2980    -3.2200 ca         1 CRO      -0.044120
     78 C30        -10.3400    -1.8740    -3.3440 ca         1 CRO      -0.058741
     79 C31        -10.5650    -3.2110    -3.0130 ca         1 CRO      -0.061987
     80 C32         -9.5130    -3.9970    -2.5540 ca         1 CRO      -0.062252
     81 C33         -8.2400    -3.4450    -2.4270 ca         1 CRO      -0.061987
     82 C34         -8.0140    -2.1050    -2.7580 ca         1 CRO      -0.058741
     83 C35         -8.8770     0.1710    -3.5920 c3         1 CRO      -0.004518
     84 C36         -7.6050     0.4070    -4.4270 c3         1 CRO      -0.057373
     85 H36         -9.6900     0.3650    -4.3100 hc         1 CRO       0.036042
     86 H40         -6.6870     0.2250    -3.8600 hc         1 CRO       0.023692
     87 H41         -7.5650     1.4340    -4.8030 hc         1 CRO       0.023692
     88 H42         -7.5850    -0.2610    -5.2960 hc         1 CRO       0.023692
     89 H43         -7.0070    -1.7120    -2.6550 ha         1 CRO       0.062576
     90 H44         -9.6850    -5.0390    -2.2980 ha         1 CRO       0.062273
     91 H45         -7.4170    -4.0630    -2.0740 ha         1 CRO       0.062283
     92 H46        -11.1780    -1.2800    -3.7020 ha         1 CRO       0.062576
     93 H47        -11.5600    -3.6360    -3.1150 ha         1 CRO       0.062283
@<TRIPOS>BOND
     1    75    73 1   
     2    76    73 1   
     3    73    74 1   
     4    73    67 1   
     5    52    50 1   
     6    54    50 1   
     7    50    53 1   
     8    50    44 1   
     9    67    66 1   
    10    67    68 1   
    11    70    68 1   
    12    51    44 1   
    13    44    43 1   
    14    44    46 1   
    15    66    72 2   
    16    66    63 1   
    17    68    71 1   
    18    68    69 1   
    19    48    46 1   
    20    63    59 1   
    21    61    56 1   
    22    64    59 1   
    23    38    33 1   
    24    43    40 1   
    25    43    45 2   
    26    46    47 1   
    27    46    49 1   
    28    40    36 1   
    29    59    56 1   
    30    59    65 1   
    31    42    36 1   
    32    56    60 1   
    33    56    55 1   
    34    62    60 1   
    35    39    37 1   
    36    36    33 1   
    37    36    41 1   
    38    33    37 1   
    39    33    32 1   
    40    57    55 1   
    41    27    12 1   
    42    24    20 1   
    43    31    55 1   
    44    31    19 1   
    45    55    58 1   
    46    30    32 1   
    47    30    13 1   
    48    34    32 1   
    49    32    35 1   
    50    12    13 ar  
    51    12    11 ar  
    52    20    19 ar  
    53    20    21 ar  
    54    19    18 ar  
    55    13    14 ar  
    56    26    11 1   
    57    11    10 ar  
    58    25    21 1   
    59    21    16 ar  
    60    18    23 1   
    61    18    17 ar  
    62    14    28 1   
    63    14    15 ar  
    64    16    17 ar  
    65    16     1 1   
    66    10    15 ar  
    67    10     1 1   
    68    17    22 1   
    69    15    29 1   
    70     1     2 1   
    71     1     6 1   
    72     5     2 1   
    73     8     6 1   
    74     2     3 1   
    75     2     4 1   
    76     6     9 1   
    77     6     7 1   
    78    85    83 1   
    79    88    84 1   
    80    92    78 1   
    81    78    77 ar  
    82    78    79 ar  
    83    83    77 1   
    84    83    84 1   
    85    87    84 1   
    86    93    79 1   
    87    77    82 ar  
    88    79    80 ar  
    89    84    86 1   
    90    80    90 1   
    91    80    81 ar  
    92    82    81 ar  
    93    82    89 1   
    94    81    91 1   
    95    83    67 1   
@<TRIPOS>SUBSTRUCTURE
     1 VEA         1 TEMP              0 ****  ****    0 ROOT
