@<TRIPOS>MOLECULE
*****
 93 95 0 0 0
SMALL
GASTEIGER

@<TRIPOS>ATOM
      1 C           1.9177   -0.3742    3.8847 C.3     1  VEA1        0.0151
      2 C1          2.0513    0.9340    4.7096 C.3     1  VEA1       -0.0517
      3 H           2.9615    0.9244    5.3228 H       1  VEA1        0.0241
      4 H1          1.2065    1.0692    5.3956 H       1  VEA1        0.0241
      5 H2          2.1051    1.8229    4.0695 H       1  VEA1        0.0241
      6 C2          1.7181   -1.5126    4.9216 C.3     1  VEA1       -0.0517
      7 H3          2.4952   -1.4992    5.6952 H       1  VEA1        0.0241
      8 H4          1.7342   -2.5047    4.4550 H       1  VEA1        0.0241
      9 H5          0.7547   -1.4130    5.4377 H       1  VEA1        0.0241
     10 C3          3.2310   -0.4995    3.0761 C.ar    1  VEA1       -0.0372
     11 C4          3.4641    0.3488    1.9775 C.ar    1  VEA1       -0.0543
     12 C5          4.6678    0.3003    1.2655 C.ar    1  VEA1       -0.0197
     13 C6          5.6775   -0.5866    1.6342 C.ar    1  VEA1        0.1206
     14 C7          5.4612   -1.4420    2.7112 C.ar    1  VEA1       -0.0197
     15 C8          4.2539   -1.3973    3.4235 C.ar    1  VEA1       -0.0543
     16 C9          0.6679   -0.4052    2.9709 C.ar    1  VEA1       -0.0372
     17 C10        -0.3264    0.5852    3.0102 C.ar    1  VEA1       -0.0543
     18 C11        -1.4819    0.4937    2.2198 C.ar    1  VEA1       -0.0197
     19 C12        -1.6779   -0.5939    1.3708 C.ar    1  VEA1        0.1206
     20 C13        -0.6902   -1.5747    1.3027 C.ar    1  VEA1       -0.0197
     21 C14         0.4657   -1.4839    2.0890 C.ar    1  VEA1       -0.0543
     22 H6         -0.2402    1.4468    3.6665 H       1  VEA1        0.0622
     23 H7         -2.2126    1.2904    2.3091 H       1  VEA1        0.0654
     24 H8         -0.8226   -2.4273    0.6412 H       1  VEA1        0.0654
     25 H9          1.2078   -2.2768    2.0126 H       1  VEA1        0.0622
     26 H10         2.7069    1.0664    1.6664 H       1  VEA1        0.0622
     27 H11         4.8186    0.9712    0.4234 H       1  VEA1        0.0654
     28 H12         6.2099   -2.1589    3.0322 H       1  VEA1        0.0654
     29 H13         4.1470   -2.0778    4.2639 H       1  VEA1        0.0622
     30 O           6.8118   -0.5238    0.8718 O.3     1  VEA1       -0.4893
     31 O1         -2.7758   -0.8124    0.5790 O.3     1  VEA1       -0.4893
     32 C15         7.9347   -1.2762    1.3301 C.3     1  VEA1        0.1186
     33 C16         9.1386   -1.0102    0.4238 C.3     1  VEA1        0.1230
     34 H14         7.7084   -2.3497    1.3037 H       1  VEA1        0.0724
     35 H15         8.1914   -1.0026    2.3622 H       1  VEA1        0.0724
     36 C17         9.5548    0.4645    0.4340 C.3     1  VEA1        0.1215
     37 O2         10.2396   -1.8203    0.8610 O.3     1  VEA1       -0.3850
     38 H16         8.9062   -1.3087   -0.6053 H       1  VEA1        0.0662
     39 H17        11.0077   -1.5377    0.3298 H       1  VEA1        0.2101
     40 O3         10.7035    0.5990   -0.4290 O.3     1  VEA1       -0.4617
     41 H18         9.8480    0.7679    1.4459 H       1  VEA1        0.0725
     42 H19         8.7424    1.1012    0.0669 H       1  VEA1        0.0725
     43 C18        11.1585    1.8773   -0.5581 C.2     1  VEA1        0.3097
     44 C19        12.3829    1.9110   -1.4516 C.3     1  VEA1        0.0508
     45 O4         10.6632    2.8557   -0.0184 O.2     1  VEA1       -0.2506
     46 C20        13.6000    2.3146   -0.6283 C.3     1  VEA1       -0.0525
     47 H20        13.4835    3.3196   -0.2074 H       1  VEA1        0.0237
     48 H21        14.5065    2.3061   -1.2423 H       1  VEA1        0.0237
     49 H22        13.7495    1.6235    0.2085 H       1  VEA1        0.0237
     50 C21        12.1483    2.8673   -2.6146 C.3     1  VEA1       -0.0525
     51 H23        12.5532    0.9075   -1.8608 H       1  VEA1        0.0408
     52 H24        13.0071    2.8717   -3.2938 H       1  VEA1        0.0237
     53 H25        11.9863    3.8930   -2.2651 H       1  VEA1        0.0237
     54 H26        11.2630    2.5711   -3.1878 H       1  VEA1        0.0237
     55 C22        -3.8161    0.1699    0.6501 C.3     1  VEA1        0.1186
     56 C23        -5.0094   -0.2532   -0.2231 C.3     1  VEA1        0.1230
     57 H27        -3.4165    1.1237    0.2847 H       1  VEA1        0.0724
     58 H28        -4.1565    0.2700    1.6884 H       1  VEA1        0.0724
     59 C24        -5.9194    0.9550   -0.4632 C.3     1  VEA1        0.1215
     60 O5         -5.7591   -1.2786    0.4450 O.3     1  VEA1       -0.3850
     61 H29        -4.6708   -0.6792   -1.1739 H       1  VEA1        0.0662
     62 H30        -6.5685   -1.4209   -0.0804 H       1  VEA1        0.2101
     63 O6         -7.0700    0.5623   -1.2369 O.3     1  VEA1       -0.4617
     64 H31        -5.3505    1.7317   -0.9883 H       1  VEA1        0.0725
     65 H32        -6.2857    1.3454    0.4938 H       1  VEA1        0.0725
     66 C25        -7.7599    1.6228   -1.7474 C.2     1  VEA1        0.3097
     67 C26        -9.0700    1.2063   -2.4254 C.3     1  VEA1        0.0508
     68 C27       -10.0286    0.7321   -1.3147 C.3     1  VEA1       -0.0525
     69 H33        -9.6488   -0.1532   -0.7933 H       1  VEA1        0.0237
     70 H34       -11.0222    0.5009   -1.7134 H       1  VEA1        0.0237
     71 H35       -10.1553    1.5080   -0.5494 H       1  VEA1        0.0237
     72 O7         -7.3924    2.7867   -1.6282 O.2     1  VEA1       -0.2506
     73 C28        -9.7014    2.4889   -3.0322 C.3     1  VEA1       -0.0525
     74 H37        -9.8742    3.2533   -2.2650 H       1  VEA1        0.0237
     75 H38       -10.6690    2.2730   -3.4995 H       1  VEA1        0.0237
     76 H39        -9.0521    2.9372   -3.7922 H       1  VEA1        0.0237
     77 C          -9.0609   -1.2976   -3.2195 C.ar    1  CRO01      -0.0476
     78 C1        -10.3396   -1.8741   -3.3442 C.ar    1  CRO01      -0.0586
     79 C2        -10.5646   -3.2105   -3.0127 C.ar    1  CRO01      -0.0615
     80 C3         -9.5131   -3.9965   -2.5535 C.ar    1  CRO01      -0.0617
     81 C4         -8.2397   -3.4450   -2.4272 C.ar    1  CRO01      -0.0615
     82 C5         -8.0139   -2.1054   -2.7580 C.ar    1  CRO01      -0.0586
     83 C6         -8.8774    0.1706   -3.5925 C.3     1  CRO01      -0.0305
     84 C7         -7.6048    0.4070   -4.4270 C.3     1  CRO01      -0.0613
     85 H1         -9.6899    0.3651   -4.3103 H       1  CRO01       0.0311
     86 H2         -6.6872    0.2252   -3.8595 H       1  CRO01       0.0233
     87 H3         -7.5651    1.4339   -4.8035 H       1  CRO01       0.0233
     88 H4         -7.5855   -0.2611   -5.2960 H       1  CRO01       0.0233
     89 H5         -7.0066   -1.7123   -2.6552 H       1  CRO01       0.0620
     90 H6         -9.6847   -5.0387   -2.2977 H       1  CRO01       0.0618
     91 H7         -7.4174   -4.0626   -2.0739 H       1  CRO01       0.0618
     92 H8        -11.1785   -1.2796   -3.7020 H       1  CRO01       0.0620
     93 H9        -11.5597   -3.6357   -3.1153 H       1  CRO01       0.0618
@<TRIPOS>BOND
     1    75    73    1
     2    76    73    1
     3    73    74    1
     4    73    67    1
     5    52    50    1
     6    54    50    1
     7    50    53    1
     8    50    44    1
     9    67    66    1
    10    67    68    1
    11    70    68    1
    12    51    44    1
    13    44    43    1
    14    44    46    1
    15    66    72    2
    16    66    63    1
    17    68    71    1
    18    68    69    1
    19    48    46    1
    20    63    59    1
    21    61    56    1
    22    64    59    1
    23    38    33    1
    24    43    40    1
    25    43    45    2
    26    46    47    1
    27    46    49    1
    28    40    36    1
    29    59    56    1
    30    59    65    1
    31    42    36    1
    32    56    60    1
    33    56    55    1
    34    62    60    1
    35    39    37    1
    36    36    33    1
    37    36    41    1
    38    33    37    1
    39    33    32    1
    40    57    55    1
    41    27    12    1
    42    24    20    1
    43    31    55    1
    44    31    19    1
    45    55    58    1
    46    30    32    1
    47    30    13    1
    48    34    32    1
    49    32    35    1
    50    12    13   ar
    51    12    11   ar
    52    20    19   ar
    53    20    21   ar
    54    19    18   ar
    55    13    14   ar
    56    26    11    1
    57    11    10   ar
    58    25    21    1
    59    21    16   ar
    60    18    23    1
    61    18    17   ar
    62    14    28    1
    63    14    15   ar
    64    16    17   ar
    65    16     1    1
    66    10    15   ar
    67    10     1    1
    68    17    22    1
    69    15    29    1
    70     1     2    1
    71     1     6    1
    72     5     2    1
    73     8     6    1
    74     2     3    1
    75     2     4    1
    76     6     9    1
    77     6     7    1
    78    85    83    1
    79    88    84    1
    80    92    78    1
    81    78    77   ar
    82    78    79   ar
    83    83    77    1
    84    83    84    1
    85    87    84    1
    86    93    79    1
    87    77    82   ar
    88    79    80   ar
    89    84    86    1
    90    80    90    1
    91    80    81   ar
    92    82    81   ar
    93    82    89    1
    94    81    91    1
    95    83    67    1
