@<TRIPOS>MOLECULE
*****
 93 95 0 0 0
SMALL
GASTEIGER

@<TRIPOS>ATOM
      1 C           2.3743   -0.3423    3.9790 C.3     1  VEA1        0.0151
      2 C1          2.5583    0.9318    4.8443 C.3     1  VEA1       -0.0517
      3 H           3.4819    0.8789    5.4347 H       1  VEA1        0.0241
      4 H1          1.7333    1.0627    5.5547 H       1  VEA1        0.0241
      5 H2          2.6181    1.8407    4.2337 H       1  VEA1        0.0241
      6 C2          2.1621   -1.5134    4.9747 C.3     1  VEA1       -0.0517
      7 H3          2.9562   -1.5542    5.7297 H       1  VEA1        0.0241
      8 H4          2.1364   -2.4863    4.4692 H       1  VEA1        0.0241
      9 H5          1.2137   -1.4053    5.5161 H       1  VEA1        0.0241
     10 C3          3.6665   -0.4744    3.1361 C.ar    1  VEA1       -0.0372
     11 C4          3.8924    0.4020    2.0577 C.ar    1  VEA1       -0.0543
     12 C5          5.0632    0.3293    1.2963 C.ar    1  VEA1       -0.0197
     13 C6          6.0491   -0.6079    1.5971 C.ar    1  VEA1        0.1206
     14 C7          5.8423   -1.4877    2.6563 C.ar    1  VEA1       -0.0197
     15 C8          4.6662   -1.4200    3.4174 C.ar    1  VEA1       -0.0543
     16 C9          1.1108   -0.3068    3.0848 C.ar    1  VEA1       -0.0372
     17 C10         0.1259    0.6896    3.1907 C.ar    1  VEA1       -0.0543
     18 C11        -1.0229    0.6709    2.3849 C.ar    1  VEA1       -0.0197
     19 C12        -1.2142   -0.3465    1.4543 C.ar    1  VEA1        0.1206
     20 C13        -0.2430   -1.3378    1.3298 C.ar    1  VEA1       -0.0197
     21 C14         0.8995   -1.3243    2.1354 C.ar    1  VEA1       -0.0543
     22 H6          0.2214    1.5032    3.9046 H       1  VEA1        0.0622
     23 H7         -1.7452    1.4699    2.5131 H       1  VEA1        0.0654
     24 H8         -0.3789   -2.1365    0.6047 H       1  VEA1        0.0654
     25 H9          1.6301   -2.1217    2.0108 H       1  VEA1        0.0622
     26 H10         3.1507    1.1548    1.7960 H       1  VEA1        0.0622
     27 H11         5.2062    1.0181    0.4675 H       1  VEA1        0.0654
     28 H12         6.5732   -2.2449    2.9213 H       1  VEA1        0.0654
     29 H13         4.5620   -2.1252    4.2375 H       1  VEA1        0.0622
     30 O           7.1503   -0.5690    0.7873 O.3     1  VEA1       -0.4893
     31 O1         -2.2810   -0.4796    0.6108 O.3     1  VEA1       -0.4893
     32 C15         8.2788   -1.3372    1.2028 C.3     1  VEA1        0.1186
     33 C16         9.4620   -1.0515    0.2754 C.3     1  VEA1        0.1230
     34 H14         8.0460   -2.4085    1.1560 H       1  VEA1        0.0724
     35 H15         8.5612   -1.0900    2.2348 H       1  VEA1        0.0724
     36 C17         9.8667    0.4264    0.2995 C.3     1  VEA1        0.1215
     37 O2         10.5767   -1.8606    0.6768 O.3     1  VEA1       -0.3850
     38 H16         9.2095   -1.3356   -0.7531 H       1  VEA1        0.0662
     39 H17        11.3324   -1.5624    0.1365 H       1  VEA1        0.2101
     40 O3         11.0001    0.5847   -0.5789 O.3     1  VEA1       -0.4617
     41 H18        10.1733    0.7181    1.3109 H       1  VEA1        0.0725
     42 H19         9.0427    1.0609   -0.0449 H       1  VEA1        0.0725
     43 C18        11.4312    1.8713   -0.7055 C.2     1  VEA1        0.3097
     44 C19        12.6450    1.9324   -1.6110 C.3     1  VEA1        0.0508
     45 O4         10.9252    2.8382   -0.1531 O.2     1  VEA1       -0.2506
     46 C20        13.8662    2.3335   -0.7926 C.3     1  VEA1       -0.0525
     47 H20        13.7439    3.3297   -0.3530 H       1  VEA1        0.0237
     48 H21        14.7666    2.3446   -1.4153 H       1  VEA1        0.0237
     49 H22        14.0304    1.6295    0.0305 H       1  VEA1        0.0237
     50 C21        12.3894    2.9066   -2.7547 C.3     1  VEA1       -0.0525
     51 H23        12.8199    0.9379   -2.0397 H       1  VEA1        0.0408
     52 H24        13.2410    2.9309   -3.4425 H       1  VEA1        0.0237
     53 H25        12.2214    3.9244   -2.3857 H       1  VEA1        0.0237
     54 H26        11.5010    2.6119   -3.3238 H       1  VEA1        0.0237
     55 C22        -3.4059    0.3792    0.8338 C.3     1  VEA1        0.1186
     56 C23        -4.5188   -0.0199   -0.1446 C.3     1  VEA1        0.1230
     57 H27        -3.1061    1.4163    0.6433 H       1  VEA1        0.0724
     58 H28        -3.7600    0.2640    1.8655 H       1  VEA1        0.0724
     59 C24        -5.6399    1.0206   -0.1684 C.3     1  VEA1        0.1215
     60 O5         -5.0786   -1.2827    0.2517 O.3     1  VEA1       -0.3850
     61 H29        -4.1062   -0.1663   -1.1496 H       1  VEA1        0.0662
     62 H30        -5.7870   -1.4829   -0.3859 H       1  VEA1        0.2101
     63 O6         -6.5533    0.6689   -1.2277 O.3     1  VEA1       -0.4617
     64 H31        -5.2325    2.0180   -0.3694 H       1  VEA1        0.0725
     65 H32        -6.1819    1.0159    0.7848 H       1  VEA1        0.0725
     66 C25        -7.6186    1.5115   -1.3389 C.2     1  VEA1        0.3097
     67 C26        -8.4531    1.1649   -2.5621 C.3     1  VEA1        0.0508
     68 C27        -9.9022    0.8934   -2.1104 C.3     1  VEA1       -0.0525
     69 H34        -9.8940    0.4341   -1.1115 H       1  VEA1        0.0237
     70 H35       -10.3895    1.8685   -1.9656 H       1  VEA1        0.0237
     71 O7         -7.8484    2.4488   -0.5863 O.2     1  VEA1       -0.2506
     72 C28        -8.3089    2.3341   -3.5383 C.3     1  VEA1       -0.0525
     73 H36        -8.0211    0.2755   -3.0282 H       1  VEA1        0.0408
     74 H37        -8.8377    3.2238   -3.1790 H       1  VEA1        0.0237
     75 H38        -8.6904    2.0892   -4.5311 H       1  VEA1        0.0237
     76 H39        -7.2549    2.6101   -3.6604 H       1  VEA1        0.0237
     77 C         -10.8070   -1.4515   -2.7473 C.ar    1  CRO01      -0.0476
     78 C1        -12.0306   -2.1386   -2.6445 C.ar    1  CRO01      -0.0586
     79 C2        -12.0687   -3.5186   -2.4352 C.ar    1  CRO01      -0.0615
     80 C3        -10.8830   -4.2376   -2.3276 C.ar    1  CRO01      -0.0617
     81 C4         -9.6624   -3.5760   -2.4326 C.ar    1  CRO01      -0.0615
     82 C5         -9.6239   -2.1943   -2.6451 C.ar    1  CRO01      -0.0586
     83 C6        -10.8290    0.0476   -3.0213 C.3     1  CRO01      -0.0305
     84 C7        -10.6838    0.3032   -4.5200 C.3     1  CRO01      -0.0613
     85 H1        -11.8422    0.3847   -2.7544 H       1  CRO01       0.0311
     86 H2         -9.7088   -0.0207   -4.8982 H       1  CRO01       0.0233
     87 H3        -10.8203    1.3650   -4.7473 H       1  CRO01       0.0233
     88 H4        -11.4458   -0.2460   -5.0857 H       1  CRO01       0.0233
     89 H5         -8.6526   -1.7239   -2.7400 H       1  CRO01       0.0620
     90 H6        -10.9097   -5.3121   -2.1680 H       1  CRO01       0.0618
     91 H7         -8.7353   -4.1386   -2.3563 H       1  CRO01       0.0618
     92 H8        -12.9723   -1.6007   -2.7360 H       1  CRO01       0.0620
     93 H9        -13.0247   -4.0303   -2.3618 H       1  CRO01       0.0618
@<TRIPOS>BOND
     1    75    72    1
     2    76    72    1
     3    72    74    1
     4    72    67    1
     5    52    50    1
     6    54    50    1
     7    50    53    1
     8    50    44    1
     9    73    67    1
    10    67    66    1
    11    67    68    1
    12    69    68    1
    13    51    44    1
    14    44    43    1
    15    44    46    1
    16    66    71    2
    17    66    63    1
    18    68    70    1
    19    48    46    1
    20    63    59    1
    21    61    56    1
    22    64    59    1
    23    38    33    1
    24    43    40    1
    25    43    45    2
    26    46    47    1
    27    46    49    1
    28    40    36    1
    29    59    56    1
    30    59    65    1
    31    42    36    1
    32    56    60    1
    33    56    55    1
    34    62    60    1
    35    39    37    1
    36    36    33    1
    37    36    41    1
    38    33    37    1
    39    33    32    1
    40    57    55    1
    41    27    12    1
    42    24    20    1
    43    31    55    1
    44    31    19    1
    45    55    58    1
    46    30    32    1
    47    30    13    1
    48    34    32    1
    49    32    35    1
    50    12    13   ar
    51    12    11   ar
    52    20    19   ar
    53    20    21   ar
    54    19    18   ar
    55    13    14   ar
    56    26    11    1
    57    11    10   ar
    58    25    21    1
    59    21    16   ar
    60    18    23    1
    61    18    17   ar
    62    14    28    1
    63    14    15   ar
    64    16    17   ar
    65    16     1    1
    66    10    15   ar
    67    10     1    1
    68    17    22    1
    69    15    29    1
    70     1     2    1
    71     1     6    1
    72     5     2    1
    73     8     6    1
    74     2     3    1
    75     2     4    1
    76     6     9    1
    77     6     7    1
    78    85    83    1
    79    88    84    1
    80    92    78    1
    81    78    77   ar
    82    78    79   ar
    83    83    77    1
    84    83    84    1
    85    87    84    1
    86    93    79    1
    87    77    82   ar
    88    79    80   ar
    89    84    86    1
    90    80    90    1
    91    80    81   ar
    92    82    81   ar
    93    82    89    1
    94    81    91    1
    95    83    68    1
