@<TRIPOS>MOLECULE
*****
   93    95     1     0     0
SMALL
gas


@<TRIPOS>ATOM
      1 C            2.3740    -0.3420     3.9790 c3         1 VEA       0.014609
      2 C1           2.5580     0.9320     4.8440 c3         1 VEA      -0.051690
      3 H            3.4820     0.8790     5.4350 hc         1 VEA       0.024276
      4 H1           1.7330     1.0630     5.5550 hc         1 VEA       0.024276
      5 H2           2.6180     1.8410     4.2340 hc         1 VEA       0.024276
      6 C2           2.1620    -1.5130     4.9750 c3         1 VEA      -0.051690
      7 H3           2.9560    -1.5540     5.7300 hc         1 VEA       0.024276
      8 H4           2.1360    -2.4860     4.4690 hc         1 VEA       0.024276
      9 H5           1.2140    -1.4050     5.5160 hc         1 VEA       0.024276
     10 C3           3.6670    -0.4740     3.1360 ca         1 VEA      -0.037779
     11 C4           3.8920     0.4020     2.0580 ca         1 VEA      -0.055557
     12 C5           5.0630     0.3290     1.2960 ca         1 VEA      -0.031490
     13 C6           6.0490    -0.6080     1.5970 ca         1 VEA       0.075038
     14 C7           5.8420    -1.4880     2.6560 ca         1 VEA      -0.031490
     15 C8           4.6660    -1.4200     3.4170 ca         1 VEA      -0.055557
     16 C9           1.1110    -0.3070     3.0850 ca         1 VEA      -0.037779
     17 C10          0.1260     0.6900     3.1910 ca         1 VEA      -0.055557
     18 C11         -1.0230     0.6710     2.3850 ca         1 VEA      -0.031490
     19 C12         -1.2140    -0.3460     1.4540 ca         1 VEA       0.075038
     20 C13         -0.2430    -1.3380     1.3300 ca         1 VEA      -0.031490
     21 C14          0.8990    -1.3240     2.1350 ca         1 VEA      -0.055557
     22 H6           0.2210     1.5030     3.9050 ha         1 VEA       0.062694
     23 H7          -1.7450     1.4700     2.5130 ha         1 VEA       0.065055
     24 H8          -0.3790    -2.1360     0.6050 ha         1 VEA       0.065055
     25 H9           1.6300    -2.1220     2.0110 ha         1 VEA       0.062694
     26 H10          3.1510     1.1550     1.7960 ha         1 VEA       0.062694
     27 H11          5.2060     1.0180     0.4680 ha         1 VEA       0.065055
     28 H12          6.5730    -2.2450     2.9210 ha         1 VEA       0.065055
     29 H13          4.5620    -2.1250     4.2370 ha         1 VEA       0.062694
     30 O            7.1500    -0.5690     0.7870 os         1 VEA      -0.343351
     31 O1          -2.2810    -0.4800     0.6110 os         1 VEA      -0.343351
     32 C15          8.2790    -1.3370     1.2030 c3         1 VEA       0.081544
     33 C16          9.4620    -1.0520     0.2750 c3         1 VEA       0.101764
     34 H14          8.0460    -2.4090     1.1560 h1         1 VEA       0.060081
     35 H15          8.5610    -1.0900     2.2350 h1         1 VEA       0.060081
     36 C17          9.8670     0.4260     0.2990 c3         1 VEA       0.084596
     37 O2          10.5770    -1.8610     0.6770 oh         1 VEA      -0.388274
     38 H16          9.2100    -1.3360    -0.7530 h1         1 VEA       0.065019
     39 H17         11.3320    -1.5620     0.1370 ho         1 VEA       0.210692
     40 O3          11.0000     0.5850    -0.5790 os         1 VEA      -0.312982
     41 H18         10.1730     0.7180     1.3110 h1         1 VEA       0.060196
     42 H19          9.0430     1.0610    -0.0450 h1         1 VEA       0.060196
     43 C18         11.4310     1.8710    -0.7060 c          1 VEA       0.263425
     44 C19         12.6450     1.9320    -1.6110 c3         1 VEA       0.039496
     45 O4          10.9250     2.8380    -0.1530 o          1 VEA      -0.266333
     46 C20         13.8660     2.3330    -0.7930 c3         1 VEA      -0.053343
     47 H20         13.7440     3.3300    -0.3530 hc         1 VEA       0.023845
     48 H21         14.7670     2.3450    -1.4150 hc         1 VEA       0.023845
     49 H22         14.0300     1.6290     0.0300 hc         1 VEA       0.023845
     50 C21         12.3890     2.9070    -2.7550 c3         1 VEA      -0.053343
     51 H23         12.8200     0.9380    -2.0400 hc         1 VEA       0.040359
     52 H24         13.2410     2.9310    -3.4420 hc         1 VEA       0.023845
     53 H25         12.2210     3.9240    -2.3860 hc         1 VEA       0.023845
     54 H26         11.5010     2.6120    -3.3240 hc         1 VEA       0.023845
     55 C22         -3.4060     0.3790     0.8340 c3         1 VEA       0.081544
     56 C23         -4.5190    -0.0200    -0.1450 c3         1 VEA       0.101764
     57 H27         -3.1060     1.4160     0.6430 h1         1 VEA       0.060081
     58 H28         -3.7600     0.2640     1.8650 h1         1 VEA       0.060081
     59 C24         -5.6400     1.0210    -0.1680 c3         1 VEA       0.084596
     60 O5          -5.0790    -1.2830     0.2520 oh         1 VEA      -0.388274
     61 H29         -4.1060    -0.1660    -1.1500 h1         1 VEA       0.065019
     62 H30         -5.7870    -1.4830    -0.3860 ho         1 VEA       0.210692
     63 O6          -6.5530     0.6690    -1.2280 os         1 VEA      -0.312973
     64 H31         -5.2320     2.0180    -0.3690 h1         1 VEA       0.060196
     65 H32         -6.1820     1.0160     0.7850 h1         1 VEA       0.060196
     66 C25         -7.6190     1.5120    -1.3390 c          1 VEA       0.263728
     67 C26         -8.4530     1.1650    -2.5620 c3         1 VEA       0.042890
     68 C27         -9.9020     0.8930    -2.1100 c3         1 VEA      -0.034642
     69 H34         -9.8940     0.4340    -1.1110 hc         1 VEA       0.028082
     70 H35        -10.3890     1.8690    -1.9660 hc         1 VEA       0.028082
     71 O7          -7.8480     2.4490    -0.5860 o          1 VEA      -0.266321
     72 C28         -8.3090     2.3340    -3.5380 c3         1 VEA      -0.053050
     73 H36         -8.0210     0.2760    -3.0280 hc         1 VEA       0.040673
     74 H37         -8.8380     3.2240    -3.1790 hc         1 VEA       0.023856
     75 H38         -8.6900     2.0890    -4.5310 hc         1 VEA       0.023856
     76 H39         -7.2550     2.6100    -3.6600 hc         1 VEA       0.023856
     77 C29        -10.8070    -1.4520    -2.7470 ca         1 CRO      -0.045167
     78 C30        -12.0310    -2.1390    -2.6440 ca         1 CRO      -0.058776
     79 C31        -12.0690    -3.5190    -2.4350 ca         1 CRO      -0.061988
     80 C32        -10.8830    -4.2380    -2.3280 ca         1 CRO      -0.062252
     81 C33         -9.6620    -3.5760    -2.4330 ca         1 CRO      -0.061988
     82 C34         -9.6240    -2.1940    -2.6450 ca         1 CRO      -0.058776
     83 C35        -10.8290     0.0480    -3.0210 c3         1 CRO      -0.018271
     84 C36        -10.6840     0.3030    -4.5200 c3         1 CRO      -0.058391
     85 H33        -11.8420     0.3850    -2.7540 hc         1 CRO       0.034963
     86 H40         -9.7090    -0.0210    -4.8980 hc         1 CRO       0.023657
     87 H41        -10.8200     1.3650    -4.7470 hc         1 CRO       0.023657
     88 H42        -11.4460    -0.2460    -5.0860 hc         1 CRO       0.023657
     89 H43         -8.6530    -1.7240    -2.7400 ha         1 CRO       0.062575
     90 H44        -10.9100    -5.3120    -2.1680 ha         1 CRO       0.062273
     91 H45         -8.7350    -4.1390    -2.3560 ha         1 CRO       0.062283
     92 H46        -12.9720    -1.6010    -2.7360 ha         1 CRO       0.062575
     93 H47        -13.0250    -4.0300    -2.3620 ha         1 CRO       0.062283
@<TRIPOS>BOND
     1    75    72 1   
     2    76    72 1   
     3    72    74 1   
     4    72    67 1   
     5    52    50 1   
     6    54    50 1   
     7    50    53 1   
     8    50    44 1   
     9    73    67 1   
    10    67    66 1   
    11    67    68 1   
    12    69    68 1   
    13    51    44 1   
    14    44    43 1   
    15    44    46 1   
    16    66    71 2   
    17    66    63 1   
    18    68    70 1   
    19    48    46 1   
    20    63    59 1   
    21    61    56 1   
    22    64    59 1   
    23    38    33 1   
    24    43    40 1   
    25    43    45 2   
    26    46    47 1   
    27    46    49 1   
    28    40    36 1   
    29    59    56 1   
    30    59    65 1   
    31    42    36 1   
    32    56    60 1   
    33    56    55 1   
    34    62    60 1   
    35    39    37 1   
    36    36    33 1   
    37    36    41 1   
    38    33    37 1   
    39    33    32 1   
    40    57    55 1   
    41    27    12 1   
    42    24    20 1   
    43    31    55 1   
    44    31    19 1   
    45    55    58 1   
    46    30    32 1   
    47    30    13 1   
    48    34    32 1   
    49    32    35 1   
    50    12    13 ar  
    51    12    11 ar  
    52    20    19 ar  
    53    20    21 ar  
    54    19    18 ar  
    55    13    14 ar  
    56    26    11 1   
    57    11    10 ar  
    58    25    21 1   
    59    21    16 ar  
    60    18    23 1   
    61    18    17 ar  
    62    14    28 1   
    63    14    15 ar  
    64    16    17 ar  
    65    16     1 1   
    66    10    15 ar  
    67    10     1 1   
    68    17    22 1   
    69    15    29 1   
    70     1     2 1   
    71     1     6 1   
    72     5     2 1   
    73     8     6 1   
    74     2     3 1   
    75     2     4 1   
    76     6     9 1   
    77     6     7 1   
    78    85    83 1   
    79    88    84 1   
    80    92    78 1   
    81    78    77 ar  
    82    78    79 ar  
    83    83    77 1   
    84    83    84 1   
    85    87    84 1   
    86    93    79 1   
    87    77    82 ar  
    88    79    80 ar  
    89    84    86 1   
    90    80    90 1   
    91    80    81 ar  
    92    82    81 ar  
    93    82    89 1   
    94    81    91 1   
    95    83    68 1   
@<TRIPOS>SUBSTRUCTURE
     1 VEA         1 TEMP              0 ****  ****    0 ROOT
