@<TRIPOS>MOLECULE
*****
 109 112 0 0 0
SMALL
GASTEIGER

@<TRIPOS>ATOM
      1 C          -2.9182   -0.2234    4.5722 C.3     1  VEA1        0.0151
      2 C1         -2.6655    1.0882    5.3599 C.3     1  VEA1       -0.0517
      3 H          -1.7548    1.0151    5.9679 H       1  VEA1        0.0241
      4 H1         -3.4905    1.3140    6.0461 H       1  VEA1        0.0241
      5 H2         -2.5399    1.9518    4.6959 H       1  VEA1        0.0241
      6 C2         -3.2047   -1.3167    5.6354 C.3     1  VEA1       -0.0517
      7 H3         -2.4193   -1.3562    6.3996 H       1  VEA1        0.0241
      8 H4         -3.2827   -2.3162    5.1910 H       1  VEA1        0.0241
      9 H5         -4.1490   -1.1210    6.1589 H       1  VEA1        0.0241
     10 C3         -1.6338   -0.4824    3.7480 C.ar    1  VEA1       -0.0372
     11 C4         -1.3644    0.3028    2.6091 C.ar    1  VEA1       -0.0543
     12 C5         -0.2115    0.1027    1.8458 C.ar    1  VEA1       -0.0197
     13 C6          0.7161   -0.8648    2.2180 C.ar    1  VEA1        0.1206
     14 C7          0.4690   -1.6584    3.3349 C.ar    1  VEA1       -0.0197
     15 C8         -0.6924   -1.4660    4.0940 C.ar    1  VEA1       -0.0543
     16 C9         -4.1685   -0.1697    3.6613 C.ar    1  VEA1       -0.0372
     17 C10        -5.0725    0.9049    3.6654 C.ar    1  VEA1       -0.0543
     18 C11        -6.2035    0.9097    2.8358 C.ar    1  VEA1       -0.0197
     19 C12        -6.4600   -0.1635    1.9866 C.ar    1  VEA1        0.1206
     20 C13        -5.5698   -1.2348    1.9649 C.ar    1  VEA1       -0.0197
     21 C14        -4.4425   -1.2420    2.7909 C.ar    1  VEA1       -0.0543
     22 H6         -4.9252    1.7641    4.3138 H       1  VEA1        0.0622
     23 H7         -6.8623    1.7700    2.8841 H       1  VEA1        0.0654
     24 H8         -5.7558   -2.0769    1.3031 H       1  VEA1        0.0654
     25 H9         -3.7716   -2.0980    2.7433 H       1  VEA1        0.0622
     26 H10        -2.0628    1.0777    2.2973 H       1  VEA1        0.0622
     27 H11        -0.0355    0.7151    0.9654 H       1  VEA1        0.0654
     28 H12         1.1543   -2.4469    3.6293 H       1  VEA1        0.0654
     29 H13        -0.8372   -2.1086    4.9580 H       1  VEA1        0.0622
     30 O           1.8077   -0.9906    1.4046 O.3     1  VEA1       -0.4893
     31 O1         -7.5251   -0.2868    1.1394 O.3     1  VEA1       -0.4893
     32 C15         3.0241   -1.3011    2.0871 C.3     1  VEA1        0.1186
     33 C16         4.2085   -1.0340    1.1570 C.3     1  VEA1        0.1230
     34 H14         3.0362   -2.3596    2.3749 H       1  VEA1        0.0724
     35 H15         3.1330   -0.6984    2.9993 H       1  VEA1        0.0724
     36 C17         4.2352    0.4169    0.6632 C.3     1  VEA1        0.1215
     37 O2          5.4236   -1.3352    1.8557 O.3     1  VEA1       -0.3850
     38 H16         4.1585   -1.7041    0.2905 H       1  VEA1        0.0662
     39 H17         6.1552   -1.0881    1.2586 H       1  VEA1        0.2101
     40 O3          5.3582    0.5455   -0.2310 O.3     1  VEA1       -0.4617
     41 H18         4.3909    1.1050    1.5015 H       1  VEA1        0.0725
     42 H19         3.3075    0.6647    0.1363 H       1  VEA1        0.0725
     43 C18         5.4039    1.6924   -0.9598 C.2     1  VEA1        0.3097
     44 C19         6.6328    1.7455   -1.9003 C.3     1  VEA1        0.0508
     45 O4          4.5362    2.5569   -0.9135 O.2     1  VEA1       -0.2506
     46 C20         7.8744    1.0517   -1.2035 C.3     1  VEA1       -0.0525
     47 H21         8.4882    1.8557   -0.7687 H       1  VEA1        0.0237
     48 H22         7.5703    0.5324   -0.2890 H       1  VEA1        0.0237
     49 C21         6.9905    3.2650   -1.9584 C.3     1  VEA1       -0.0525
     50 H24         7.9317    3.4358   -2.4923 H       1  VEA1        0.0237
     51 H25         7.1006    3.6871   -0.9515 H       1  VEA1        0.0237
     52 H26         6.2064    3.8466   -2.4582 H       1  VEA1        0.0237
     53 C22        -8.5294    0.7322    1.1990 C.3     1  VEA1        0.1186
     54 C23        -9.6982    0.3127    0.3002 C.3     1  VEA1        0.1230
     55 H27        -8.0993    1.6735    0.8372 H       1  VEA1        0.0724
     56 H28        -8.8876    0.8432    2.2298 H       1  VEA1        0.0724
     57 C24       -10.6501    1.4831    0.0503 C.3     1  VEA1        0.1215
     58 O5        -10.4329   -0.7464    0.9371 O.3     1  VEA1       -0.3850
     59 H29        -9.3295   -0.0933   -0.6489 H       1  VEA1        0.0662
     60 H30       -11.1707   -0.9630    0.3387 H       1  VEA1        0.2101
     61 O6        -11.7151    1.0159   -0.7997 O.3     1  VEA1       -0.4617
     62 H31       -10.1201    2.3066   -0.4418 H       1  VEA1        0.0725
     63 H32       -11.0868    1.8251    0.9962 H       1  VEA1        0.0725
     64 C25       -12.6188    1.9784   -1.1368 C.2     1  VEA1        0.3097
     65 C26       -13.7347    1.3829   -1.9715 C.3     1  VEA1        0.0508
     66 C27       -15.0338    1.4170   -1.1762 C.3     1  VEA1       -0.0525
     67 H33       -14.9239    0.8769   -0.2293 H       1  VEA1        0.0237
     68 H34       -15.8488    0.9520   -1.7402 H       1  VEA1        0.0237
     69 H35       -15.3291    2.4445   -0.9355 H       1  VEA1        0.0237
     70 O7        -12.5490    3.1517   -0.7988 O.2     1  VEA1       -0.2506
     71 C28       -13.8589    2.1420   -3.2868 C.3     1  VEA1       -0.0525
     72 H36       -13.4896    0.3382   -2.1998 H       1  VEA1        0.0408
     73 H37       -14.1188    3.1933   -3.1211 H       1  VEA1        0.0237
     74 H38       -14.6324    1.6967   -3.9211 H       1  VEA1        0.0237
     75 H39       -12.9126    2.1197   -3.8382 H       1  VEA1        0.0237
     76 C           5.7076   -0.1636   -3.5259 C.ar    1  CRO01      -0.0476
     77 C1          4.4749   -0.6094   -3.0156 C.ar    1  CRO01      -0.0586
     78 C2          4.0635   -1.9377   -3.1616 C.ar    1  CRO01      -0.0615
     79 C3          4.8648   -2.8452   -3.8457 C.ar    1  CRO01      -0.0617
     80 C4          6.0651   -2.4178   -4.4014 C.ar    1  CRO01      -0.0615
     81 C5          6.4742   -1.0888   -4.2542 C.ar    1  CRO01      -0.0586
     82 C6          6.1225    1.2998   -3.3404 C.3     1  CRO01      -0.0305
     83 C7          6.9822    1.8265   -4.5122 C.3     1  CRO01      -0.0613
     84 H1          5.1736    1.8423   -3.4919 H       1  CRO01       0.0311
     85 H2          8.0282    1.5204   -4.4469 H       1  CRO01       0.0233
     86 H3          6.9642    2.9203   -4.5573 H       1  CRO01       0.0233
     87 H4          6.5905    1.4787   -5.4756 H       1  CRO01       0.0233
     88 H5          7.4137   -0.8027   -4.7197 H       1  CRO01       0.0620
     89 H6          4.5502   -3.8789   -3.9581 H       1  CRO01       0.0618
     90 H7          6.6915   -3.1180   -4.9484 H       1  CRO01       0.0618
     91 H8          3.8040    0.0791   -2.5060 H       1  CRO01       0.0620
     92 H9          3.1116   -2.2597   -2.7470 H       1  CRO01       0.0618
     93 C           8.8538   -1.3170   -1.4867 C.ar    1  CRO11      -0.0476
     94 C1          7.6597   -1.9604   -1.1136 C.ar    1  CRO11      -0.0586
     95 C2          7.6385   -3.2872   -0.6769 C.ar    1  CRO11      -0.0615
     96 C3          8.8180   -4.0167   -0.6234 C.ar    1  CRO11      -0.0617
     97 C4         10.0118   -3.4167   -1.0100 C.ar    1  CRO11      -0.0615
     98 C5         10.0290   -2.0837   -1.4391 C.ar    1  CRO11      -0.0586
     99 C6          8.8265    0.1271   -2.0069 C.3     1  CRO11      -0.0305
    100 C7         10.2143    0.7930   -2.0723 C.3     1  CRO11      -0.0613
    101 H1          8.5028    0.0536   -3.0389 H       1  CRO11       0.0311
    102 H2         10.6998    0.8050   -1.0897 H       1  CRO11       0.0233
    103 H3         10.1332    1.8276   -2.4246 H       1  CRO11       0.0233
    104 H4         10.8750    0.2747   -2.7753 H       1  CRO11       0.0233
    105 H5         10.9868   -1.6714   -1.7427 H       1  CRO11       0.0620
    106 H6          8.8051   -5.0515   -0.2937 H       1  CRO11       0.0618
    107 H7         10.9358   -3.9885   -0.9863 H       1  CRO11       0.0618
    108 H8          6.7085   -1.4422   -1.1776 H       1  CRO11       0.0620
    109 H9          6.6953   -3.7479   -0.3947 H       1  CRO11       0.0618
@<TRIPOS>BOND
     1    74    71    1
     2    75    71    1
     3    71    73    1
     4    71    65    1
     5    50    49    1
     6    52    49    1
     7    49    51    1
     8    49    44    1
     9    72    65    1
    10    65    64    1
    11    65    66    1
    12    68    66    1
    13    44    43    1
    14    44    46    1
    15    64    70    2
    16    64    61    1
    17    66    69    1
    18    66    67    1
    19    47    46    1
    20    61    57    1
    21    59    54    1
    22    62    57    1
    23    38    33    1
    24    43    40    1
    25    43    45    2
    26    46    48    1
    27    40    36    1
    28    57    54    1
    29    57    63    1
    30    42    36    1
    31    54    58    1
    32    54    53    1
    33    60    58    1
    34    39    37    1
    35    36    33    1
    36    36    41    1
    37    33    37    1
    38    33    32    1
    39    55    53    1
    40    27    12    1
    41    24    20    1
    42    31    53    1
    43    31    19    1
    44    53    56    1
    45    30    32    1
    46    30    13    1
    47    34    32    1
    48    32    35    1
    49    12    13   ar
    50    12    11   ar
    51    20    19   ar
    52    20    21   ar
    53    19    18   ar
    54    13    14   ar
    55    26    11    1
    56    11    10   ar
    57    25    21    1
    58    21    16   ar
    59    18    23    1
    60    18    17   ar
    61    14    28    1
    62    14    15   ar
    63    16    17   ar
    64    16     1    1
    65    10    15   ar
    66    10     1    1
    67    17    22    1
    68    15    29    1
    69     1     2    1
    70     1     6    1
    71     5     2    1
    72     8     6    1
    73     2     3    1
    74     2     4    1
    75     6     9    1
    76     6     7    1
    77    84    82    1
    78    87    83    1
    79    91    77    1
    80    77    76   ar
    81    77    78   ar
    82    82    76    1
    83    82    83    1
    84    86    83    1
    85    92    78    1
    86    76    81   ar
    87    78    79   ar
    88    83    85    1
    89    79    89    1
    90    79    80   ar
    91    81    80   ar
    92    81    88    1
    93    80    90    1
    94   101    99    1
    95   104   100    1
    96   108    94    1
    97    94    93   ar
    98    94    95   ar
    99    99    93    1
   100    99   100    1
   101   103   100    1
   102   109    95    1
   103    93    98   ar
   104    95    96   ar
   105   100   102    1
   106    96   106    1
   107    96    97   ar
   108    98    97   ar
   109    98   105    1
   110    97   107    1
   111    82    44    1
   112    99    46    1
