@<TRIPOS>MOLECULE
*****
  109   112     1     0     0
SMALL
gas


@<TRIPOS>ATOM
      1 C           -2.9180    -0.2230     4.5720 c3         1 VEA       0.014609
      2 C1          -2.6660     1.0880     5.3600 c3         1 VEA      -0.051690
      3 H           -1.7550     1.0150     5.9680 hc         1 VEA       0.024276
      4 H1          -3.4900     1.3140     6.0460 hc         1 VEA       0.024276
      5 H2          -2.5400     1.9520     4.6960 hc         1 VEA       0.024276
      6 C2          -3.2050    -1.3170     5.6350 c3         1 VEA      -0.051690
      7 H3          -2.4190    -1.3560     6.4000 hc         1 VEA       0.024276
      8 H4          -3.2830    -2.3160     5.1910 hc         1 VEA       0.024276
      9 H5          -4.1490    -1.1210     6.1590 hc         1 VEA       0.024276
     10 C3          -1.6340    -0.4820     3.7480 ca         1 VEA      -0.037779
     11 C4          -1.3640     0.3030     2.6090 ca         1 VEA      -0.055557
     12 C5          -0.2110     0.1030     1.8460 ca         1 VEA      -0.031490
     13 C6           0.7160    -0.8650     2.2180 ca         1 VEA       0.075038
     14 C7           0.4690    -1.6580     3.3350 ca         1 VEA      -0.031490
     15 C8          -0.6920    -1.4660     4.0940 ca         1 VEA      -0.055557
     16 C9          -4.1680    -0.1700     3.6610 ca         1 VEA      -0.037779
     17 C10         -5.0720     0.9050     3.6650 ca         1 VEA      -0.055557
     18 C11         -6.2040     0.9100     2.8360 ca         1 VEA      -0.031490
     19 C12         -6.4600    -0.1640     1.9870 ca         1 VEA       0.075038
     20 C13         -5.5700    -1.2350     1.9650 ca         1 VEA      -0.031490
     21 C14         -4.4420    -1.2420     2.7910 ca         1 VEA      -0.055557
     22 H6          -4.9250     1.7640     4.3140 ha         1 VEA       0.062694
     23 H7          -6.8620     1.7700     2.8840 ha         1 VEA       0.065055
     24 H8          -5.7560    -2.0770     1.3030 ha         1 VEA       0.065055
     25 H9          -3.7720    -2.0980     2.7430 ha         1 VEA       0.062694
     26 H10         -2.0630     1.0780     2.2970 ha         1 VEA       0.062694
     27 H11         -0.0350     0.7150     0.9650 ha         1 VEA       0.065055
     28 H12          1.1540    -2.4470     3.6290 ha         1 VEA       0.065055
     29 H13         -0.8370    -2.1090     4.9580 ha         1 VEA       0.062694
     30 O            1.8080    -0.9910     1.4050 os         1 VEA      -0.343351
     31 O1          -7.5250    -0.2870     1.1390 os         1 VEA      -0.343351
     32 C15          3.0240    -1.3010     2.0870 c3         1 VEA       0.081544
     33 C16          4.2080    -1.0340     1.1570 c3         1 VEA       0.101764
     34 H14          3.0360    -2.3600     2.3750 h1         1 VEA       0.060081
     35 H15          3.1330    -0.6980     2.9990 h1         1 VEA       0.060081
     36 C17          4.2350     0.4170     0.6630 c3         1 VEA       0.084607
     37 O2           5.4240    -1.3350     1.8560 oh         1 VEA      -0.388274
     38 H16          4.1590    -1.7040     0.2900 h1         1 VEA       0.065019
     39 H17          6.1550    -1.0880     1.2590 ho         1 VEA       0.210692
     40 O3           5.3580     0.5450    -0.2310 os         1 VEA      -0.312733
     41 H18          4.3910     1.1050     1.5020 h1         1 VEA       0.060196
     42 H19          3.3080     0.6650     0.1360 h1         1 VEA       0.060196
     43 C18          5.4040     1.6920    -0.9600 c          1 VEA       0.267468
     44 C19          6.6330     1.7460    -1.9000 c3         1 VEA       0.060686
     45 O4           4.5360     2.5570    -0.9130 o          1 VEA      -0.265963
     46 C20          7.8740     1.0520    -1.2040 c3         1 VEA      -0.031183
     47 H21          8.4880     1.8560    -0.7690 hc         1 VEA       0.028393
     48 H22          7.5700     0.5320    -0.2890 hc         1 VEA       0.028393
     49 C21          6.9900     3.2650    -1.9580 c3         1 VEA      -0.049572
     50 H24          7.9320     3.4360    -2.4920 hc         1 VEA       0.024166
     51 H25          7.1010     3.6870    -0.9520 hc         1 VEA       0.024166
     52 H26          6.2060     3.8470    -2.4580 hc         1 VEA       0.024166
     53 C22         -8.5290     0.7320     1.1990 c3         1 VEA       0.081544
     54 C23         -9.6980     0.3130     0.3000 c3         1 VEA       0.101764
     55 H27         -8.0990     1.6730     0.8370 h1         1 VEA       0.060081
     56 H28         -8.8880     0.8430     2.2300 h1         1 VEA       0.060081
     57 C24        -10.6500     1.4830     0.0500 c3         1 VEA       0.084596
     58 O5         -10.4330    -0.7460     0.9370 oh         1 VEA      -0.388274
     59 H29         -9.3290    -0.0930    -0.6490 h1         1 VEA       0.065019
     60 H30        -11.1710    -0.9630     0.3390 ho         1 VEA       0.210692
     61 O6         -11.7150     1.0160    -0.8000 os         1 VEA      -0.312982
     62 H31        -10.1200     2.3070    -0.4420 h1         1 VEA       0.060196
     63 H32        -11.0870     1.8250     0.9960 h1         1 VEA       0.060196
     64 C25        -12.6190     1.9780    -1.1370 c          1 VEA       0.263425
     65 C26        -13.7350     1.3830    -1.9720 c3         1 VEA       0.039496
     66 C27        -15.0340     1.4170    -1.1760 c3         1 VEA      -0.053343
     67 H33        -14.9240     0.8770    -0.2290 hc         1 VEA       0.023845
     68 H34        -15.8490     0.9520    -1.7400 hc         1 VEA       0.023845
     69 H35        -15.3290     2.4450    -0.9350 hc         1 VEA       0.023845
     70 O7         -12.5490     3.1520    -0.7990 o          1 VEA      -0.266333
     71 C28        -13.8590     2.1420    -3.2870 c3         1 VEA      -0.053343
     72 H36        -13.4900     0.3380    -2.2000 hc         1 VEA       0.040359
     73 H37        -14.1190     3.1930    -3.1210 hc         1 VEA       0.023845
     74 H38        -14.6320     1.6970    -3.9210 hc         1 VEA       0.023845
     75 H39        -12.9130     2.1200    -3.8380 hc         1 VEA       0.023845
     76 C29          5.7080    -0.1640    -3.5260 ca         1 CRO      -0.044109
     77 C31          4.4750    -0.6090    -3.0160 ca         1 CRO      -0.058740
     78 C33          4.0640    -1.9380    -3.1620 ca         1 CRO      -0.061987
     79 C35          4.8650    -2.8450    -3.8460 ca         1 CRO      -0.062252
     80 C37          6.0650    -2.4180    -4.4010 ca         1 CRO      -0.061987
     81 C39          6.4740    -1.0890    -4.2540 ca         1 CRO      -0.058740
     82 C41          6.1220     1.3000    -3.3400 c3         1 CRO      -0.004225
     83 C43          6.9820     1.8270    -4.5120 c3         1 CRO      -0.057362
     84 H20          5.1740     1.8420    -3.4920 hc         1 CRO       0.036053
     85 H40          8.0280     1.5200    -4.4470 hc         1 CRO       0.023692
     86 H42          6.9640     2.9200    -4.5570 hc         1 CRO       0.023692
     87 H44          6.5900     1.4790    -5.4760 hc         1 CRO       0.023692
     88 H46          7.4140    -0.8030    -4.7200 ha         1 CRO       0.062576
     89 H48          4.5500    -3.8790    -3.9580 ha         1 CRO       0.062273
     90 H50          6.6910    -3.1180    -4.9480 ha         1 CRO       0.062283
     91 H52          3.8040     0.0790    -2.5060 ha         1 CRO       0.062576
     92 H54          3.1120    -2.2600    -2.7470 ha         1 CRO       0.062283
     93 C30          8.8540    -1.3170    -1.4870 ca         1 CRO      -0.045156
     94 C32          7.6600    -1.9600    -1.1140 ca         1 CRO      -0.058776
     95 C34          7.6380    -3.2870    -0.6770 ca         1 CRO      -0.061988
     96 C36          8.8180    -4.0170    -0.6230 ca         1 CRO      -0.062252
     97 C38         10.0120    -3.4170    -1.0100 ca         1 CRO      -0.061988
     98 C40         10.0290    -2.0840    -1.4390 ca         1 CRO      -0.058776
     99 C42          8.8260     0.1270    -2.0070 c3         1 CRO      -0.017981
    100 C44         10.2140     0.7930    -2.0720 c3         1 CRO      -0.058380
    101 H23          8.5030     0.0540    -3.0390 hc         1 CRO       0.034974
    102 H41         10.7000     0.8050    -1.0900 hc         1 CRO       0.023657
    103 H43         10.1330     1.8280    -2.4250 hc         1 CRO       0.023657
    104 H45         10.8750     0.2750    -2.7750 hc         1 CRO       0.023657
    105 H47         10.9870    -1.6710    -1.7430 ha         1 CRO       0.062575
    106 H49          8.8050    -5.0510    -0.2940 ha         1 CRO       0.062273
    107 H51         10.9360    -3.9890    -0.9860 ha         1 CRO       0.062283
    108 H53          6.7080    -1.4420    -1.1780 ha         1 CRO       0.062575
    109 H55          6.6950    -3.7480    -0.3950 ha         1 CRO       0.062283
@<TRIPOS>BOND
     1    74    71 1   
     2    75    71 1   
     3    71    73 1   
     4    71    65 1   
     5    50    49 1   
     6    52    49 1   
     7    49    51 1   
     8    49    44 1   
     9    72    65 1   
    10    65    64 1   
    11    65    66 1   
    12    68    66 1   
    13    44    43 1   
    14    44    46 1   
    15    64    70 2   
    16    64    61 1   
    17    66    69 1   
    18    66    67 1   
    19    47    46 1   
    20    61    57 1   
    21    59    54 1   
    22    62    57 1   
    23    38    33 1   
    24    43    40 1   
    25    43    45 2   
    26    46    48 1   
    27    40    36 1   
    28    57    54 1   
    29    57    63 1   
    30    42    36 1   
    31    54    58 1   
    32    54    53 1   
    33    60    58 1   
    34    39    37 1   
    35    36    33 1   
    36    36    41 1   
    37    33    37 1   
    38    33    32 1   
    39    55    53 1   
    40    27    12 1   
    41    24    20 1   
    42    31    53 1   
    43    31    19 1   
    44    53    56 1   
    45    30    32 1   
    46    30    13 1   
    47    34    32 1   
    48    32    35 1   
    49    12    13 ar  
    50    12    11 ar  
    51    20    19 ar  
    52    20    21 ar  
    53    19    18 ar  
    54    13    14 ar  
    55    26    11 1   
    56    11    10 ar  
    57    25    21 1   
    58    21    16 ar  
    59    18    23 1   
    60    18    17 ar  
    61    14    28 1   
    62    14    15 ar  
    63    16    17 ar  
    64    16     1 1   
    65    10    15 ar  
    66    10     1 1   
    67    17    22 1   
    68    15    29 1   
    69     1     2 1   
    70     1     6 1   
    71     5     2 1   
    72     8     6 1   
    73     2     3 1   
    74     2     4 1   
    75     6     9 1   
    76     6     7 1   
    77    84    82 1   
    78    87    83 1   
    79    91    77 1   
    80    77    76 ar  
    81    77    78 ar  
    82    82    76 1   
    83    82    83 1   
    84    86    83 1   
    85    92    78 1   
    86    76    81 ar  
    87    78    79 ar  
    88    83    85 1   
    89    79    89 1   
    90    79    80 ar  
    91    81    80 ar  
    92    81    88 1   
    93    80    90 1   
    94   101    99 1   
    95   104   100 1   
    96   108    94 1   
    97    94    93 ar  
    98    94    95 ar  
    99    99    93 1   
   100    99   100 1   
   101   103   100 1   
   102   109    95 1   
   103    93    98 ar  
   104    95    96 ar  
   105   100   102 1   
   106    96   106 1   
   107    96    97 ar  
   108    98    97 ar  
   109    98   105 1   
   110    97   107 1   
   111    82    44 1   
   112    99    46 1   
@<TRIPOS>SUBSTRUCTURE
     1 VEA         1 TEMP              0 ****  ****    0 ROOT
