@<TRIPOS>MOLECULE
*****
 109 112 0 0 0
SMALL
GASTEIGER

@<TRIPOS>ATOM
      1 C           0.1780   -0.0985    4.4037 C.3     1  VEA1        0.0151
      2 C1          0.2831    1.2253    5.2089 C.3     1  VEA1       -0.0517
      3 H           1.1821    1.2352    5.8386 H       1  VEA1        0.0241
      4 H1         -0.5754    1.3634    5.8769 H       1  VEA1        0.0241
      5 H2          0.3398    2.1043    4.5556 H       1  VEA1        0.0241
      6 C2         -0.0285   -1.2195    5.4575 C.3     1  VEA1       -0.0517
      7 H3          0.7385   -1.1877    6.2405 H       1  VEA1        0.0241
      8 H4         -0.0012   -2.2197    5.0092 H       1  VEA1        0.0241
      9 H5         -0.9993   -1.1161    5.9590 H       1  VEA1        0.0241
     10 C3          1.5076   -0.2229    3.6215 C.ar    1  VEA1       -0.0372
     11 C4          1.7593    0.6301    2.5311 C.ar    1  VEA1       -0.0543
     12 C5          2.9815    0.5977    1.8524 C.ar    1  VEA1       -0.0197
     13 C6          3.9906   -0.2809    2.2424 C.ar    1  VEA1        0.1206
     14 C7          3.7535   -1.1498    3.3035 C.ar    1  VEA1       -0.0197
     15 C8          2.5276   -1.1184    3.9862 C.ar    1  VEA1       -0.0543
     16 C9         -1.0546   -0.1565    3.4676 C.ar    1  VEA1       -0.0372
     17 C10        -2.0578    0.8260    3.4688 C.ar    1  VEA1       -0.0543
     18 C11        -3.1994    0.7086    2.6609 C.ar    1  VEA1       -0.0197
     19 C12        -3.3729   -0.3987    1.8327 C.ar    1  VEA1        0.1206
     20 C13        -2.3751   -1.3714    1.8014 C.ar    1  VEA1       -0.0197
     21 C14        -1.2325   -1.2539    2.6039 C.ar    1  VEA1       -0.0543
     22 H6         -1.9899    1.7017    4.1086 H       1  VEA1        0.0622
     23 H7         -3.9383    1.5005    2.7212 H       1  VEA1        0.0654
     24 H8         -2.4890   -2.2386    1.1558 H       1  VEA1        0.0654
     25 H9         -0.4823   -2.0413    2.5554 H       1  VEA1        0.0622
     26 H10         1.0041    1.3423    2.2033 H       1  VEA1        0.0622
     27 H11         3.1496    1.2750    1.0185 H       1  VEA1        0.0654
     28 H12         4.5015   -1.8621    3.6366 H       1  VEA1        0.0654
     29 H13         2.4042   -1.8048    4.8197 H       1  VEA1        0.0622
     30 O           5.1451   -0.1833    1.5184 O.3     1  VEA1       -0.4893
     31 O1         -4.4571   -0.6469    1.0308 O.3     1  VEA1       -0.4893
     32 C15         6.2494   -0.9860    1.9323 C.3     1  VEA1        0.1186
     33 C16         7.4730   -0.6332    1.0801 C.3     1  VEA1        0.1230
     34 H14         6.0128   -2.0494    1.7996 H       1  VEA1        0.0724
     35 H15         6.4852   -0.8149    2.9910 H       1  VEA1        0.0724
     36 C17         7.9502    0.7997    1.3466 C.3     1  VEA1        0.1215
     37 O2          8.5311   -1.5529    1.3828 O.3     1  VEA1       -0.3850
     38 H16         7.2282   -0.7469    0.0192 H       1  VEA1        0.0662
     39 H17         9.2582   -1.3372    0.7666 H       1  VEA1        0.2101
     40 O3          9.1366    1.0725    0.5690 O.3     1  VEA1       -0.4617
     41 H18         8.2522    0.9056    2.3942 H       1  VEA1        0.0725
     42 H19         7.1635    1.5374    1.1547 H       1  VEA1        0.0725
     43 C18         8.9670    1.7494   -0.5974 C.2     1  VEA1        0.3097
     44 C19        10.2965    1.9836   -1.3358 C.3     1  VEA1        0.0508
     45 O4          7.8794    2.1101   -1.0332 O.2     1  VEA1       -0.2506
     46 C20        11.5172    1.7043   -0.4357 C.3     1  VEA1       -0.0525
     47 H20        11.5059    2.3548    0.4477 H       1  VEA1        0.0237
     48 H21        12.4599    1.8899   -0.9602 H       1  VEA1        0.0237
     49 H22        11.5370    0.6765   -0.0619 H       1  VEA1        0.0237
     50 C21        10.3362    3.4905   -1.6798 C.3     1  VEA1       -0.0525
     51 H24        11.3032    3.7856   -2.1018 H       1  VEA1        0.0237
     52 H25        10.1703    4.1031   -0.7853 H       1  VEA1        0.0237
     53 H26         9.5579    3.7582   -2.4034 H       1  VEA1        0.0237
     54 C22        -5.5001    0.3352    1.0454 C.3     1  VEA1        0.1186
     55 C23        -6.6826   -0.1294    0.1766 C.3     1  VEA1        0.1230
     56 H27        -5.0963    1.2731    0.6450 H       1  VEA1        0.0724
     57 H28        -5.8551    0.4800    2.0735 H       1  VEA1        0.0724
     58 C24        -7.5817    1.0683   -0.1438 C.3     1  VEA1        0.1215
     59 O5         -7.4486   -1.1121    0.8888 O.3     1  VEA1       -0.3850
     60 H29        -6.3322   -0.6086   -0.7441 H       1  VEA1        0.0662
     61 H30        -8.2433   -1.2882    0.3515 H       1  VEA1        0.2101
     62 O6         -8.7451    0.6423   -0.8809 O.3     1  VEA1       -0.4617
     63 H31        -7.0062    1.7999   -0.7238 H       1  VEA1        0.0725
     64 H32        -7.9353    1.5289    0.7867 H       1  VEA1        0.0725
     65 C25        -9.4382    1.6867   -1.4230 C.2     1  VEA1        0.3097
     66 C26       -10.7846    1.2603   -2.0194 C.3     1  VEA1        0.0508
     67 C27       -11.6617    0.7414   -0.8617 C.3     1  VEA1       -0.0525
     68 H33       -11.2431   -0.1581   -0.3977 H       1  VEA1        0.0237
     69 H34       -12.6795    0.5159   -1.1977 H       1  VEA1        0.0237
     70 H35       -11.7390    1.4909   -0.0641 H       1  VEA1        0.0237
     71 O7         -9.0416    2.8469   -1.3935 O.2     1  VEA1       -0.2506
     72 C28       -11.4782    2.5456   -2.5484 C.3     1  VEA1       -0.0525
     73 H37       -11.5938    3.2952   -1.7562 H       1  VEA1        0.0237
     74 H38       -12.4790    2.3253   -2.9378 H       1  VEA1        0.0237
     75 H39       -10.8991    3.0116   -3.3536 H       1  VEA1        0.0237
     76 C          10.0993   -0.3759   -2.3900 C.ar    1  CRO01      -0.0476
     77 C1          8.8222   -0.9500   -2.5044 C.ar    1  CRO01      -0.0586
     78 C2          8.6229   -2.3097   -2.2592 C.ar    1  CRO01      -0.0615
     79 C3          9.6966   -3.1169   -1.8958 C.ar    1  CRO01      -0.0617
     80 C4         10.9707   -2.5665   -1.7861 C.ar    1  CRO01      -0.0615
     81 C5         11.1718   -1.2072   -2.0353 C.ar    1  CRO01      -0.0586
     82 C6         10.2711    1.1208   -2.6463 C.3     1  CRO01      -0.0305
     83 C7         11.4476    1.3841   -3.6021 C.3     1  CRO01      -0.0613
     84 H1          9.3825    1.4348   -3.2159 H       1  CRO01       0.0311
     85 H2         12.4187    1.1865   -3.1394 H       1  CRO01       0.0233
     86 H3         11.4480    2.4209   -3.9528 H       1  CRO01       0.0233
     87 H4         11.3722    0.7476   -4.4918 H       1  CRO01       0.0233
     88 H5         12.1795   -0.8093   -1.9438 H       1  CRO01       0.0620
     89 H6          9.5407   -4.1747   -1.7011 H       1  CRO01       0.0618
     90 H7         11.8114   -3.1973   -1.5084 H       1  CRO01       0.0618
     91 H8          7.9645   -0.3378   -2.7812 H       1  CRO01       0.0620
     92 H9          7.6269   -2.7363   -2.3480 H       1  CRO01       0.0618
     93 C         -10.8805   -1.2075   -2.9064 C.ar    1  CRO11      -0.0476
     94 C1        -12.1795   -1.7332   -3.0457 C.ar    1  CRO11      -0.0586
     95 C2        -12.4496   -3.0728   -2.7660 C.ar    1  CRO11      -0.0615
     96 C3        -11.4236   -3.9122   -2.3457 C.ar    1  CRO11      -0.0617
     97 C4        -10.1316   -3.4094   -2.2014 C.ar    1  CRO11      -0.0615
     98 C5         -9.8606   -2.0654   -2.4762 C.ar    1  CRO11      -0.0586
     99 C6        -10.6468    0.2647   -3.2274 C.3     1  CRO11      -0.0305
    100 C7         -9.3805    0.4849   -4.0750 C.3     1  CRO11      -0.0613
    101 H1        -11.4608    0.5150   -3.9259 H       1  CRO11       0.0311
    102 H2         -8.4618    0.2406   -3.5330 H       1  CRO11       0.0233
    103 H3         -9.3066    1.5254   -4.4071 H       1  CRO11       0.0233
    104 H4         -9.4036   -0.1453   -4.9719 H       1  CRO11       0.0233
    105 H5         -8.8420   -1.7078   -2.3555 H       1  CRO11       0.0620
    106 H6        -11.6299   -4.9577   -2.1325 H       1  CRO11       0.0618
    107 H7         -9.3304   -4.0689   -1.8768 H       1  CRO11       0.0618
    108 H8        -12.9986   -1.0957   -3.3743 H       1  CRO11       0.0620
    109 H9        -13.4595   -3.4587   -2.8792 H       1  CRO11       0.0618
@<TRIPOS>BOND
     1    74    72    1
     2    75    72    1
     3    72    73    1
     4    72    66    1
     5    51    50    1
     6    53    50    1
     7    50    52    1
     8    50    44    1
     9    66    65    1
    10    66    67    1
    11    69    67    1
    12    44    43    1
    13    44    46    1
    14    65    71    2
    15    65    62    1
    16    67    70    1
    17    67    68    1
    18    48    46    1
    19    62    58    1
    20    60    55    1
    21    63    58    1
    22    38    33    1
    23    43    40    1
    24    43    45    2
    25    46    47    1
    26    46    49    1
    27    40    36    1
    28    58    55    1
    29    58    64    1
    30    42    36    1
    31    55    59    1
    32    55    54    1
    33    61    59    1
    34    39    37    1
    35    36    33    1
    36    36    41    1
    37    33    37    1
    38    33    32    1
    39    56    54    1
    40    27    12    1
    41    24    20    1
    42    31    54    1
    43    31    19    1
    44    54    57    1
    45    30    32    1
    46    30    13    1
    47    34    32    1
    48    32    35    1
    49    12    13   ar
    50    12    11   ar
    51    20    19   ar
    52    20    21   ar
    53    19    18   ar
    54    13    14   ar
    55    26    11    1
    56    11    10   ar
    57    25    21    1
    58    21    16   ar
    59    18    23    1
    60    18    17   ar
    61    14    28    1
    62    14    15   ar
    63    16    17   ar
    64    16     1    1
    65    10    15   ar
    66    10     1    1
    67    17    22    1
    68    15    29    1
    69     1     2    1
    70     1     6    1
    71     5     2    1
    72     8     6    1
    73     2     3    1
    74     2     4    1
    75     6     9    1
    76     6     7    1
    77    84    82    1
    78    87    83    1
    79    91    77    1
    80    77    76   ar
    81    77    78   ar
    82    82    76    1
    83    82    83    1
    84    86    83    1
    85    92    78    1
    86    76    81   ar
    87    78    79   ar
    88    83    85    1
    89    79    89    1
    90    79    80   ar
    91    81    80   ar
    92    81    88    1
    93    80    90    1
    94   101    99    1
    95   104   100    1
    96   108    94    1
    97    94    93   ar
    98    94    95   ar
    99    99    93    1
   100    99   100    1
   101   103   100    1
   102   109    95    1
   103    93    98   ar
   104    95    96   ar
   105   100   102    1
   106    96   106    1
   107    96    97   ar
   108    98    97   ar
   109    98   105    1
   110    97   107    1
   111    82    44    1
   112    99    66    1
