@<TRIPOS>MOLECULE
*****
  109   112     1     0     0
SMALL
gas


@<TRIPOS>ATOM
      1 C            0.1780    -0.0990     4.4040 c3         1 VEA       0.014613
      2 C1           0.2830     1.2250     5.2090 c3         1 VEA      -0.051690
      3 H            1.1820     1.2350     5.8390 hc         1 VEA       0.024275
      4 H1          -0.5750     1.3630     5.8770 hc         1 VEA       0.024275
      5 H2           0.3400     2.1040     4.5560 hc         1 VEA       0.024275
      6 C2          -0.0290    -1.2200     5.4570 c3         1 VEA      -0.051690
      7 H3           0.7390    -1.1880     6.2400 hc         1 VEA       0.024275
      8 H4          -0.0010    -2.2200     5.0090 hc         1 VEA       0.024275
      9 H5          -0.9990    -1.1160     5.9590 hc         1 VEA       0.024275
     10 C3           1.5080    -0.2230     3.6220 ca         1 VEA      -0.037775
     11 C4           1.7590     0.6300     2.5310 ca         1 VEA      -0.055555
     12 C5           2.9820     0.5980     1.8520 ca         1 VEA      -0.031489
     13 C6           3.9910    -0.2810     2.2420 ca         1 VEA       0.075048
     14 C7           3.7530    -1.1500     3.3040 ca         1 VEA      -0.031489
     15 C8           2.5280    -1.1180     3.9860 ca         1 VEA      -0.055555
     16 C9          -1.0550    -0.1570     3.4680 ca         1 VEA      -0.037775
     17 C10         -2.0580     0.8260     3.4690 ca         1 VEA      -0.055555
     18 C11         -3.1990     0.7090     2.6610 ca         1 VEA      -0.031489
     19 C12         -3.3730    -0.3990     1.8330 ca         1 VEA       0.075048
     20 C13         -2.3750    -1.3710     1.8010 ca         1 VEA      -0.031489
     21 C14         -1.2320    -1.2540     2.6040 ca         1 VEA      -0.055555
     22 H6          -1.9900     1.7020     4.1090 ha         1 VEA       0.062690
     23 H7          -3.9380     1.5000     2.7210 ha         1 VEA       0.065049
     24 H8          -2.4890    -2.2390     1.1560 ha         1 VEA       0.065049
     25 H9          -0.4820    -2.0410     2.5550 ha         1 VEA       0.062690
     26 H10          1.0040     1.3420     2.2030 ha         1 VEA       0.062690
     27 H11          3.1500     1.2750     1.0180 ha         1 VEA       0.065049
     28 H12          4.5020    -1.8620     3.6370 ha         1 VEA       0.065049
     29 H13          2.4040    -1.8050     4.8200 ha         1 VEA       0.062690
     30 O            5.1450    -0.1830     1.5180 os         1 VEA      -0.343341
     31 O1          -4.4570    -0.6470     1.0310 os         1 VEA      -0.343341
     32 C15          6.2490    -0.9860     1.9320 c3         1 VEA       0.081550
     33 C16          7.4730    -0.6330     1.0800 c3         1 VEA       0.101772
     34 H14          6.0130    -2.0490     1.8000 h1         1 VEA       0.060074
     35 H15          6.4850    -0.8150     2.9910 h1         1 VEA       0.060074
     36 C17          7.9500     0.8000     1.3470 c3         1 VEA       0.084611
     37 O2           8.5310    -1.5530     1.3830 oh         1 VEA      -0.388266
     38 H16          7.2280    -0.7470     0.0190 h1         1 VEA       0.065010
     39 H17          9.2580    -1.3370     0.7670 ho         1 VEA       0.210686
     40 O3           9.1370     1.0730     0.5690 os         1 VEA      -0.312737
     41 H18          8.2520     0.9060     2.3940 h1         1 VEA       0.060189
     42 H19          7.1630     1.5370     1.1550 h1         1 VEA       0.060189
     43 C18          8.9670     1.7490    -0.5970 c          1 VEA       0.267174
     44 C19         10.2960     1.9840    -1.3360 c3         1 VEA       0.057307
     45 O4           7.8790     2.1100    -1.0330 o          1 VEA      -0.265963
     46 C20         11.5170     1.7040    -0.4360 c3         1 VEA      -0.049870
     47 H20         11.5060     2.3550     0.4480 hc         1 VEA       0.024153
     48 H21         12.4600     1.8900    -0.9600 hc         1 VEA       0.024153
     49 H22         11.5370     0.6760    -0.0620 hc         1 VEA       0.024153
     50 C21         10.3360     3.4900    -1.6800 c3         1 VEA      -0.049870
     51 H24         11.3030     3.7860    -2.1020 hc         1 VEA       0.024153
     52 H25         10.1700     4.1030    -0.7850 hc         1 VEA       0.024153
     53 H26          9.5580     3.7580    -2.4030 hc         1 VEA       0.024153
     54 C22         -5.5000     0.3350     1.0450 c3         1 VEA       0.081550
     55 C23         -6.6830    -0.1290     0.1770 c3         1 VEA       0.101772
     56 H27         -5.0960     1.2730     0.6450 h1         1 VEA       0.060074
     57 H28         -5.8550     0.4800     2.0740 h1         1 VEA       0.060074
     58 C24         -7.5820     1.0680    -0.1440 c3         1 VEA       0.084611
     59 O5          -7.4490    -1.1120     0.8890 oh         1 VEA      -0.388266
     60 H29         -6.3320    -0.6090    -0.7440 h1         1 VEA       0.065010
     61 H30         -8.2430    -1.2880     0.3510 ho         1 VEA       0.210686
     62 O6          -8.7450     0.6420    -0.8810 os         1 VEA      -0.312737
     63 H31         -7.0060     1.8000    -0.7240 h1         1 VEA       0.060189
     64 H32         -7.9350     1.5290     0.7870 h1         1 VEA       0.060189
     65 C25         -9.4380     1.6870    -1.4230 c          1 VEA       0.267174
     66 C26        -10.7850     1.2600    -2.0190 c3         1 VEA       0.057307
     67 C27        -11.6620     0.7410    -0.8620 c3         1 VEA      -0.049870
     68 H33        -11.2430    -0.1580    -0.3980 hc         1 VEA       0.024153
     69 H34        -12.6800     0.5160    -1.1980 hc         1 VEA       0.024153
     70 H35        -11.7390     1.4910    -0.0640 hc         1 VEA       0.024153
     71 O7          -9.0420     2.8470    -1.3930 o          1 VEA      -0.265963
     72 C28        -11.4780     2.5460    -2.5480 c3         1 VEA      -0.049870
     73 H37        -11.5940     3.2950    -1.7560 hc         1 VEA       0.024153
     74 H38        -12.4790     2.3250    -2.9380 hc         1 VEA       0.024153
     75 H39        -10.8990     3.0120    -3.3540 hc         1 VEA       0.024153
     76 C29         10.0990    -0.3760    -2.3900 ca         1 CRO      -0.044115
     77 C31          8.8220    -0.9500    -2.5040 ca         1 CRO      -0.058737
     78 C33          8.6230    -2.3100    -2.2590 ca         1 CRO      -0.061983
     79 C35          9.6970    -3.1170    -1.8960 ca         1 CRO      -0.062248
     80 C37         10.9710    -2.5670    -1.7860 ca         1 CRO      -0.061983
     81 C39         11.1720    -1.2070    -2.0350 ca         1 CRO      -0.058737
     82 C41         10.2710     1.1210    -2.6460 c3         1 CRO      -0.004518
     83 C43         11.4480     1.3840    -3.6020 c3         1 CRO      -0.057374
     84 H23          9.3830     1.4350    -3.2160 hc         1 CRO       0.036039
     85 H40         12.4190     1.1870    -3.1390 hc         1 CRO       0.023691
     86 H42         11.4480     2.4210    -3.9530 hc         1 CRO       0.023691
     87 H44         11.3720     0.7480    -4.4920 hc         1 CRO       0.023691
     88 H46         12.1800    -0.8090    -1.9440 ha         1 CRO       0.062571
     89 H48          9.5410    -4.1750    -1.7010 ha         1 CRO       0.062269
     90 H50         11.8110    -3.1970    -1.5080 ha         1 CRO       0.062279
     91 H52          7.9650    -0.3380    -2.7810 ha         1 CRO       0.062571
     92 H54          7.6270    -2.7360    -2.3480 ha         1 CRO       0.062279
     93 C30        -10.8800    -1.2080    -2.9060 ca         1 CRO      -0.044115
     94 C32        -12.1800    -1.7330    -3.0460 ca         1 CRO      -0.058737
     95 C34        -12.4500    -3.0730    -2.7660 ca         1 CRO      -0.061983
     96 C36        -11.4240    -3.9120    -2.3460 ca         1 CRO      -0.062248
     97 C38        -10.1320    -3.4090    -2.2010 ca         1 CRO      -0.061983
     98 C40         -9.8610    -2.0650    -2.4760 ca         1 CRO      -0.058737
     99 C42        -10.6470     0.2650    -3.2270 c3         1 CRO      -0.004518
    100 C44         -9.3800     0.4850    -4.0750 c3         1 CRO      -0.057374
    101 H36        -11.4610     0.5150    -3.9260 hc         1 CRO       0.036039
    102 H41         -8.4620     0.2410    -3.5330 hc         1 CRO       0.023691
    103 H43         -9.3070     1.5250    -4.4070 hc         1 CRO       0.023691
    104 H45         -9.4040    -0.1450    -4.9720 hc         1 CRO       0.023691
    105 H47         -8.8420    -1.7080    -2.3560 ha         1 CRO       0.062571
    106 H49        -11.6300    -4.9580    -2.1320 ha         1 CRO       0.062269
    107 H51         -9.3300    -4.0690    -1.8770 ha         1 CRO       0.062279
    108 H53        -12.9990    -1.0960    -3.3740 ha         1 CRO       0.062571
    109 H55        -13.4600    -3.4590    -2.8790 ha         1 CRO       0.062279
@<TRIPOS>BOND
     1    74    72 1   
     2    75    72 1   
     3    72    73 1   
     4    72    66 1   
     5    51    50 1   
     6    53    50 1   
     7    50    52 1   
     8    50    44 1   
     9    66    65 1   
    10    66    67 1   
    11    69    67 1   
    12    44    43 1   
    13    44    46 1   
    14    65    71 2   
    15    65    62 1   
    16    67    70 1   
    17    67    68 1   
    18    48    46 1   
    19    62    58 1   
    20    60    55 1   
    21    63    58 1   
    22    38    33 1   
    23    43    40 1   
    24    43    45 2   
    25    46    47 1   
    26    46    49 1   
    27    40    36 1   
    28    58    55 1   
    29    58    64 1   
    30    42    36 1   
    31    55    59 1   
    32    55    54 1   
    33    61    59 1   
    34    39    37 1   
    35    36    33 1   
    36    36    41 1   
    37    33    37 1   
    38    33    32 1   
    39    56    54 1   
    40    27    12 1   
    41    24    20 1   
    42    31    54 1   
    43    31    19 1   
    44    54    57 1   
    45    30    32 1   
    46    30    13 1   
    47    34    32 1   
    48    32    35 1   
    49    12    13 ar  
    50    12    11 ar  
    51    20    19 ar  
    52    20    21 ar  
    53    19    18 ar  
    54    13    14 ar  
    55    26    11 1   
    56    11    10 ar  
    57    25    21 1   
    58    21    16 ar  
    59    18    23 1   
    60    18    17 ar  
    61    14    28 1   
    62    14    15 ar  
    63    16    17 ar  
    64    16     1 1   
    65    10    15 ar  
    66    10     1 1   
    67    17    22 1   
    68    15    29 1   
    69     1     2 1   
    70     1     6 1   
    71     5     2 1   
    72     8     6 1   
    73     2     3 1   
    74     2     4 1   
    75     6     9 1   
    76     6     7 1   
    77    84    82 1   
    78    87    83 1   
    79    91    77 1   
    80    77    76 ar  
    81    77    78 ar  
    82    82    76 1   
    83    82    83 1   
    84    86    83 1   
    85    92    78 1   
    86    76    81 ar  
    87    78    79 ar  
    88    83    85 1   
    89    79    89 1   
    90    79    80 ar  
    91    81    80 ar  
    92    81    88 1   
    93    80    90 1   
    94   101    99 1   
    95   104   100 1   
    96   108    94 1   
    97    94    93 ar  
    98    94    95 ar  
    99    99    93 1   
   100    99   100 1   
   101   103   100 1   
   102   109    95 1   
   103    93    98 ar  
   104    95    96 ar  
   105   100   102 1   
   106    96   106 1   
   107    96    97 ar  
   108    98    97 ar  
   109    98   105 1   
   110    97   107 1   
   111    82    44 1   
   112    99    66 1   
@<TRIPOS>SUBSTRUCTURE
     1 VEA         1 TEMP              0 ****  ****    0 ROOT
