@<TRIPOS>MOLECULE
*****
  109   112     1     0     0
SMALL
gas


@<TRIPOS>ATOM
      1 C            0.5950    -0.0490     4.5440 c3         1 VEA       0.014609
      2 C1           0.7490     1.2260     5.4150 c3         1 VEA      -0.051690
      3 H            1.6610     1.1800     6.0240 hc         1 VEA       0.024276
      4 H1          -0.0920     1.3480     6.1090 hc         1 VEA       0.024276
      5 H2           0.8130     2.1370     4.8090 hc         1 VEA       0.024276
      6 C2           0.3760    -1.2230     5.5340 c3         1 VEA      -0.051690
      7 H3           1.1600    -1.2590     6.3000 hc         1 VEA       0.024276
      8 H4           0.3640    -2.1950     5.0280 hc         1 VEA       0.024276
      9 H5          -0.5810    -1.1210     6.0620 hc         1 VEA       0.024276
     10 C3           1.9040    -0.1650     3.7250 ca         1 VEA      -0.037779
     11 C4           2.1480     0.7350     2.6710 ca         1 VEA      -0.055557
     12 C5           3.3390     0.6910     1.9420 ca         1 VEA      -0.031490
     13 C6           4.3240    -0.2460     2.2460 ca         1 VEA       0.075038
     14 C7           4.0960    -1.1570     3.2730 ca         1 VEA      -0.031490
     15 C8           2.9000    -1.1140     4.0060 ca         1 VEA      -0.055557
     16 C9          -0.6510    -0.0230     3.6240 ca         1 VEA      -0.037779
     17 C10         -1.6420     0.9700     3.7040 ca         1 VEA      -0.055557
     18 C11         -2.7730     0.9430     2.8730 ca         1 VEA      -0.031490
     19 C12         -2.9390    -0.0800     1.9440 ca         1 VEA       0.075038
     20 C13         -1.9590    -1.0660     1.8430 ca         1 VEA      -0.031490
     21 C14         -0.8350    -1.0440     2.6730 ca         1 VEA      -0.055557
     22 H6          -1.5650     1.7870     4.4160 ha         1 VEA       0.062694
     23 H7          -3.5010     1.7400     2.9790 ha         1 VEA       0.065055
     24 H8          -2.0750    -1.8670     1.1170 ha         1 VEA       0.065055
     25 H9          -0.0970    -1.8370     2.5670 ha         1 VEA       0.062694
     26 H10          1.4070     1.4880     2.4060 ha         1 VEA       0.062694
     27 H11          3.5000     1.3990     1.1330 ha         1 VEA       0.065055
     28 H12          4.8260    -1.9150     3.5370 ha         1 VEA       0.065055
     29 H13          2.7800    -1.8390     4.8060 ha         1 VEA       0.062694
     30 O            5.4490    -0.1600     1.4770 os         1 VEA      -0.343351
     31 O1          -3.9850    -0.2200     1.0770 os         1 VEA      -0.343351
     32 C15          6.5420    -1.0100     1.8160 c3         1 VEA       0.081544
     33 C16          7.7510    -0.6350     0.9540 c3         1 VEA       0.101764
     34 H14          6.2760    -2.0580     1.6280 h1         1 VEA       0.060081
     35 H15          6.8100    -0.9070     2.8760 h1         1 VEA       0.060081
     36 C17          8.2530     0.7760     1.2820 c3         1 VEA       0.084607
     37 O2           8.8020    -1.5830     1.1900 oh         1 VEA      -0.388274
     38 H16          7.4810    -0.6950    -0.1050 h1         1 VEA       0.065019
     39 H17          9.5110    -1.3610     0.5560 ho         1 VEA       0.210692
     40 O3           9.4200     1.0830     0.4890 os         1 VEA      -0.312742
     41 H18          8.5820     0.8250     2.3250 h1         1 VEA       0.060196
     42 H19          7.4750     1.5370     1.1480 h1         1 VEA       0.060196
     43 C18          9.2000     1.6890    -0.7070 c          1 VEA       0.267164
     44 C19         10.5080     1.9700    -1.4660 c3         1 VEA       0.057309
     45 O4           8.0890     1.9630    -1.1460 o          1 VEA      -0.265976
     46 C20         11.7520     1.7350    -0.5860 c3         1 VEA      -0.049867
     47 H20         11.7270     2.3770     0.3030 hc         1 VEA       0.024155
     48 H21         12.6780     1.9650    -1.1220 hc         1 VEA       0.024155
     49 H22         11.8190     0.7050    -0.2240 hc         1 VEA       0.024155
     50 C21         10.4800     3.4770    -1.8080 c3         1 VEA      -0.049867
     51 H24         11.4260     3.8120    -2.2480 hc         1 VEA       0.024155
     52 H25         10.3060     4.0810    -0.9090 hc         1 VEA       0.024155
     53 H26          9.6780     3.7140    -2.5160 hc         1 VEA       0.024155
     54 C22         -5.1430     0.5920     1.3060 c3         1 VEA       0.081544
     55 C23         -6.2380     0.1490     0.3260 c3         1 VEA       0.101764
     56 H27         -4.8850     1.6410     1.1190 h1         1 VEA       0.060081
     57 H28         -5.4920     0.4600     2.3370 h1         1 VEA       0.060081
     58 C24         -7.4090     1.1330     0.3060 c3         1 VEA       0.084596
     59 O5          -6.7370    -1.1410     0.7160 oh         1 VEA      -0.388274
     60 H29         -5.8180     0.0270    -0.6790 h1         1 VEA       0.065019
     61 H30         -7.4300    -1.3750     0.0720 ho         1 VEA       0.210692
     62 O6          -8.2940     0.7430    -0.7640 os         1 VEA      -0.312973
     63 H31         -7.0530     2.1510     0.1130 h1         1 VEA       0.060196
     64 H32         -7.9540     1.0940     1.2560 h1         1 VEA       0.060196
     65 C25         -9.4270     1.4940    -0.8530 c          1 VEA       0.263728
     66 C26        -10.2110     1.1330    -2.1060 c3         1 VEA       0.042890
     67 C27        -11.6850     0.8930    -1.7200 c3         1 VEA      -0.034642
     68 H34        -12.1420     1.8780    -1.5480 hc         1 VEA       0.028082
     69 H35        -11.7250     0.3920    -0.7420 hc         1 VEA       0.028082
     70 O7          -9.7380     2.3840    -0.0710 o          1 VEA      -0.266321
     71 C28         -9.9940     2.2780    -3.0970 c3         1 VEA      -0.053050
     72 H36         -9.7750     0.2210    -2.5230 hc         1 VEA       0.040673
     73 H37        -10.5600     3.1700    -2.8070 hc         1 VEA       0.023856
     74 H38        -10.2850     2.0030    -4.1120 hc         1 VEA       0.023856
     75 H39         -8.9360     2.5630    -3.1380 hc         1 VEA       0.023856
     76 C29         10.3290    -0.3900    -2.5260 ca         1 CRO      -0.044120
     77 C31          9.0530    -0.9670    -2.6520 ca         1 CRO      -0.058741
     78 C33          8.8530    -2.3260    -2.4090 ca         1 CRO      -0.061987
     79 C35          9.9240    -3.1320    -2.0380 ca         1 CRO      -0.062252
     80 C37         11.1970    -2.5800    -1.9160 ca         1 CRO      -0.061987
     81 C39         11.3990    -1.2200    -2.1610 ca         1 CRO      -0.058741
     82 C41         10.4980     1.1080    -2.7780 c3         1 CRO      -0.004518
     83 C43         11.6840     1.3780    -3.7210 c3         1 CRO      -0.057373
     84 H23          9.6140     1.4190    -3.3560 hc         1 CRO       0.036042
     85 H40         12.6500     1.1650    -3.2550 hc         1 CRO       0.023692
     86 H42         11.6950     2.4200    -4.0540 hc         1 CRO       0.023692
     87 H44         11.6100     0.7560    -4.6200 hc         1 CRO       0.023692
     88 H46         12.4050    -0.8220    -2.0600 ha         1 CRO       0.062576
     89 H48          9.7680    -4.1910    -1.8450 ha         1 CRO       0.062273
     90 H50         12.0360    -3.2110    -1.6320 ha         1 CRO       0.062283
     91 H52          8.1970    -0.3550    -2.9350 ha         1 CRO       0.062576
     92 H54          7.8580    -2.7530    -2.5060 ha         1 CRO       0.062283
     93 C30        -12.6480    -1.3880    -2.4840 ca         1 CRO      -0.045167
     94 C32        -13.8920    -2.0270    -2.3320 ca         1 CRO      -0.058776
     95 C34        -13.9780    -3.4130    -2.1860 ca         1 CRO      -0.061988
     96 C36        -12.8220    -4.1860    -2.1910 ca         1 CRO      -0.062252
     97 C38        -11.5820    -3.5720    -2.3460 ca         1 CRO      -0.061988
     98 C40        -11.4950    -2.1840    -2.4980 ca         1 CRO      -0.058776
     99 C42        -12.6150     0.1210    -2.6920 c3         1 CRO      -0.018271
    100 C44        -12.4290     0.4380    -4.1750 c3         1 CRO      -0.058391
    101 H33        -13.6230     0.4820    -2.4360 hc         1 CRO       0.034963
    102 H41        -11.4650     0.0810    -4.5520 hc         1 CRO       0.023657
    103 H43        -12.5080     1.5140    -4.3550 hc         1 CRO       0.023657
    104 H45        -13.2070    -0.0470    -4.7760 hc         1 CRO       0.023657
    105 H47        -10.5130    -1.7500    -2.6440 ha         1 CRO       0.062575
    106 H49        -12.8870    -5.2650    -2.0820 ha         1 CRO       0.062273
    107 H51        -10.6780    -4.1760    -2.3590 ha         1 CRO       0.062283
    108 H53        -14.8120    -1.4460    -2.3370 ha         1 CRO       0.062575
    109 H55        -14.9500    -3.8870    -2.0760 ha         1 CRO       0.062283
@<TRIPOS>BOND
     1    74    71 1   
     2    75    71 1   
     3    71    73 1   
     4    71    66 1   
     5    51    50 1   
     6    53    50 1   
     7    50    52 1   
     8    50    44 1   
     9    72    66 1   
    10    66    65 1   
    11    66    67 1   
    12    68    67 1   
    13    44    43 1   
    14    44    46 1   
    15    65    70 2   
    16    65    62 1   
    17    67    69 1   
    18    48    46 1   
    19    62    58 1   
    20    60    55 1   
    21    63    58 1   
    22    38    33 1   
    23    43    40 1   
    24    43    45 2   
    25    46    47 1   
    26    46    49 1   
    27    40    36 1   
    28    58    55 1   
    29    58    64 1   
    30    42    36 1   
    31    55    59 1   
    32    55    54 1   
    33    61    59 1   
    34    39    37 1   
    35    36    33 1   
    36    36    41 1   
    37    33    37 1   
    38    33    32 1   
    39    56    54 1   
    40    27    12 1   
    41    24    20 1   
    42    31    54 1   
    43    31    19 1   
    44    54    57 1   
    45    30    32 1   
    46    30    13 1   
    47    34    32 1   
    48    32    35 1   
    49    12    13 ar  
    50    12    11 ar  
    51    20    19 ar  
    52    20    21 ar  
    53    19    18 ar  
    54    13    14 ar  
    55    26    11 1   
    56    11    10 ar  
    57    25    21 1   
    58    21    16 ar  
    59    18    23 1   
    60    18    17 ar  
    61    14    28 1   
    62    14    15 ar  
    63    16    17 ar  
    64    16     1 1   
    65    10    15 ar  
    66    10     1 1   
    67    17    22 1   
    68    15    29 1   
    69     1     2 1   
    70     1     6 1   
    71     5     2 1   
    72     8     6 1   
    73     2     3 1   
    74     2     4 1   
    75     6     9 1   
    76     6     7 1   
    77    84    82 1   
    78    87    83 1   
    79    91    77 1   
    80    77    76 ar  
    81    77    78 ar  
    82    82    76 1   
    83    82    83 1   
    84    86    83 1   
    85    92    78 1   
    86    76    81 ar  
    87    78    79 ar  
    88    83    85 1   
    89    79    89 1   
    90    79    80 ar  
    91    81    80 ar  
    92    81    88 1   
    93    80    90 1   
    94   101    99 1   
    95   104   100 1   
    96   108    94 1   
    97    94    93 ar  
    98    94    95 ar  
    99    99    93 1   
   100    99   100 1   
   101   103   100 1   
   102   109    95 1   
   103    93    98 ar  
   104    95    96 ar  
   105   100   102 1   
   106    96   106 1   
   107    96    97 ar  
   108    98    97 ar  
   109    98   105 1   
   110    97   107 1   
   111    82    44 1   
   112    99    67 1   
@<TRIPOS>SUBSTRUCTURE
     1 VEA         1 TEMP              0 ****  ****    0 ROOT
