@<TRIPOS>MOLECULE
*****
 109 112 0 0 0
SMALL
GASTEIGER

@<TRIPOS>ATOM
      1 C           0.5946   -0.0488    4.5439 C.3     1  VEA1        0.0151
      2 C1          0.7489    1.2256    5.4154 C.3     1  VEA1       -0.0517
      3 H           1.6610    1.1801    6.0242 H       1  VEA1        0.0241
      4 H1         -0.0918    1.3477    6.1086 H       1  VEA1        0.0241
      5 H2          0.8129    2.1367    4.8085 H       1  VEA1        0.0241
      6 C2          0.3762   -1.2227    5.5344 C.3     1  VEA1       -0.0517
      7 H3          1.1603   -1.2593    6.3001 H       1  VEA1        0.0241
      8 H4          0.3636   -2.1951    5.0278 H       1  VEA1        0.0241
      9 H5         -0.5805   -1.1212    6.0625 H       1  VEA1        0.0241
     10 C3          1.9036   -0.1648    3.7254 C.ar    1  VEA1       -0.0372
     11 C4          2.1480    0.7354    2.6712 C.ar    1  VEA1       -0.0543
     12 C5          3.3389    0.6905    1.9415 C.ar    1  VEA1       -0.0197
     13 C6          4.3244   -0.2459    2.2459 C.ar    1  VEA1        0.1206
     14 C7          4.0958   -1.1571    3.2730 C.ar    1  VEA1       -0.0197
     15 C8          2.9003   -1.1142    4.0063 C.ar    1  VEA1       -0.0543
     16 C9         -0.6506   -0.0229    3.6244 C.ar    1  VEA1       -0.0372
     17 C10        -1.6422    0.9696    3.7045 C.ar    1  VEA1       -0.0543
     18 C11        -2.7729    0.9426    2.8734 C.ar    1  VEA1       -0.0197
     19 C12        -2.9387   -0.0799    1.9439 C.ar    1  VEA1        0.1206
     20 C13        -1.9594   -1.0659    1.8430 C.ar    1  VEA1       -0.0197
     21 C14        -0.8352   -1.0440    2.6734 C.ar    1  VEA1       -0.0543
     22 H6         -1.5651    1.7871    4.4160 H       1  VEA1        0.0622
     23 H7         -3.5006    1.7400    2.9790 H       1  VEA1        0.0654
     24 H8         -2.0750   -1.8670    1.1171 H       1  VEA1        0.0654
     25 H9         -0.0974   -1.8373    2.5665 H       1  VEA1        0.0622
     26 H10         1.4072    1.4877    2.4061 H       1  VEA1        0.0622
     27 H11         3.4997    1.3995    1.1330 H       1  VEA1        0.0654
     28 H12         4.8262   -1.9151    3.5369 H       1  VEA1        0.0654
     29 H13         2.7796   -1.8395    4.8064 H       1  VEA1        0.0622
     30 O           5.4495   -0.1596    1.4767 O.3     1  VEA1       -0.4893
     31 O1         -3.9850   -0.2203    1.0770 O.3     1  VEA1       -0.4893
     32 C15         6.5424   -1.0105    1.8160 C.3     1  VEA1        0.1186
     33 C16         7.7512   -0.6352    0.9544 C.3     1  VEA1        0.1230
     34 H14         6.2757   -2.0582    1.6283 H       1  VEA1        0.0724
     35 H15         6.8101   -0.9070    2.8758 H       1  VEA1        0.0724
     36 C17         8.2530    0.7765    1.2817 C.3     1  VEA1        0.1215
     37 O2          8.8016   -1.5825    1.1900 O.3     1  VEA1       -0.3850
     38 H16         7.4812   -0.6948   -0.1048 H       1  VEA1        0.0662
     39 H17         9.5114   -1.3607    0.5562 H       1  VEA1        0.2101
     40 O3          9.4197    1.0826    0.4895 O.3     1  VEA1       -0.4617
     41 H18         8.5822    0.8248    2.3255 H       1  VEA1        0.0725
     42 H19         7.4750    1.5366    1.1479 H       1  VEA1        0.0725
     43 C18         9.2001    1.6887   -0.7072 C.2     1  VEA1        0.3097
     44 C19        10.5075    1.9701   -1.4665 C.3     1  VEA1        0.0508
     45 O4          8.0891    1.9632   -1.1464 O.2     1  VEA1       -0.2506
     46 C20        11.7520    1.7351   -0.5864 C.3     1  VEA1       -0.0525
     47 H20        11.7273    2.3773    0.3028 H       1  VEA1        0.0237
     48 H21        12.6785    1.9651   -1.1217 H       1  VEA1        0.0237
     49 H22        11.8188    0.7053   -0.2235 H       1  VEA1        0.0237
     50 C21        10.4805    3.4773   -1.8084 C.3     1  VEA1       -0.0525
     51 H24        11.4260    3.8120   -2.2482 H       1  VEA1        0.0237
     52 H25        10.3061    4.0811   -0.9095 H       1  VEA1        0.0237
     53 H26         9.6776    3.7139   -2.5159 H       1  VEA1        0.0237
     54 C22        -5.1429    0.5923    1.3060 C.3     1  VEA1        0.1186
     55 C23        -6.2376    0.1490    0.3263 C.3     1  VEA1        0.1230
     56 H27        -4.8847    1.6411    1.1188 H       1  VEA1        0.0724
     57 H28        -5.4917    0.4598    2.3374 H       1  VEA1        0.0724
     58 C24        -7.4086    1.1330    0.3056 C.3     1  VEA1        0.1215
     59 O5         -6.7370   -1.1414    0.7157 O.3     1  VEA1       -0.3850
     60 H29        -5.8184    0.0270   -0.6794 H       1  VEA1        0.0662
     61 H30        -7.4301   -1.3745    0.0724 H       1  VEA1        0.2101
     62 O6         -8.2942    0.7425   -0.7643 O.3     1  VEA1       -0.4617
     63 H31        -7.0526    2.1513    0.1128 H       1  VEA1        0.0725
     64 H32        -7.9543    1.0936    1.2558 H       1  VEA1        0.0725
     65 C25        -9.4271    1.4943   -0.8532 C.2     1  VEA1        0.3097
     66 C26       -10.2110    1.1325   -2.1061 C.3     1  VEA1        0.0508
     67 C27       -11.6849    0.8926   -1.7202 C.3     1  VEA1       -0.0525
     68 H34       -12.1420    1.8781   -1.5485 H       1  VEA1        0.0237
     69 H35       -11.7245    0.3920   -0.7421 H       1  VEA1        0.0237
     70 O7         -9.7379    2.3838   -0.0713 O.2     1  VEA1       -0.2506
     71 C28        -9.9937    2.2776   -3.0967 C.3     1  VEA1       -0.0525
     72 H36        -9.7752    0.2214   -2.5235 H       1  VEA1        0.0408
     73 H37       -10.5597    3.1697   -2.8071 H       1  VEA1        0.0237
     74 H38       -10.2848    2.0027   -4.1119 H       1  VEA1        0.0237
     75 H39        -8.9359    2.5632   -3.1382 H       1  VEA1        0.0237
     76 C          10.3288   -0.3901   -2.5255 C.ar    1  CRO01      -0.0476
     77 C1          9.0535   -0.9665   -2.6522 C.ar    1  CRO01      -0.0586
     78 C2          8.8530   -2.3262   -2.4095 C.ar    1  CRO01      -0.0615
     79 C3          9.9243   -3.1324   -2.0377 C.ar    1  CRO01      -0.0617
     80 C4         11.1967   -2.5804   -1.9161 C.ar    1  CRO01      -0.0615
     81 C5         11.3988   -1.2201   -2.1614 C.ar    1  CRO01      -0.0586
     82 C6         10.4981    1.1080   -2.7778 C.3     1  CRO01      -0.0305
     83 C7         11.6836    1.3782   -3.7206 C.3     1  CRO01      -0.0613
     84 H1          9.6139    1.4191   -3.3555 H       1  CRO01       0.0311
     85 H2         12.6501    1.1653   -3.2549 H       1  CRO01       0.0233
     86 H3         11.6949    2.4204   -4.0541 H       1  CRO01       0.0233
     87 H4         11.6103    0.7558   -4.6203 H       1  CRO01       0.0233
     88 H5         12.4053   -0.8217   -2.0603 H       1  CRO01       0.0620
     89 H6          9.7676   -4.1905   -1.8447 H       1  CRO01       0.0618
     90 H7         12.0355   -3.2109   -1.6318 H       1  CRO01       0.0618
     91 H8          8.1972   -0.3549   -2.9351 H       1  CRO01       0.0620
     92 H9          7.8579   -2.7532   -2.5063 H       1  CRO01       0.0618
     93 C         -12.6476   -1.3879   -2.4844 C.ar    1  CRO11      -0.0476
     94 C1        -13.8917   -2.0266   -2.3316 C.ar    1  CRO11      -0.0586
     95 C2        -13.9784   -3.4127   -2.1862 C.ar    1  CRO11      -0.0615
     96 C3        -12.8219   -4.1855   -2.1909 C.ar    1  CRO11      -0.0617
     97 C4        -11.5819   -3.5716   -2.3459 C.ar    1  CRO11      -0.0615
     98 C5        -11.4952   -2.1841   -2.4975 C.ar    1  CRO11      -0.0586
     99 C6        -12.6148    0.1213   -2.6925 C.3     1  CRO11      -0.0305
    100 C7        -12.4288    0.4375   -4.1745 C.3     1  CRO11      -0.0613
    101 H1        -13.6225    0.4819   -2.4362 H       1  CRO11       0.0311
    102 H2        -11.4652    0.0805   -4.5521 H       1  CRO11       0.0233
    103 H3        -12.5081    1.5140   -4.3553 H       1  CRO11       0.0233
    104 H4        -13.2071   -0.0474   -4.7760 H       1  CRO11       0.0233
    105 H5        -10.5131   -1.7502   -2.6436 H       1  CRO11       0.0620
    106 H6        -12.8870   -5.2646   -2.0816 H       1  CRO11       0.0618
    107 H7        -10.6782   -4.1757   -2.3590 H       1  CRO11       0.0618
    108 H8        -14.8125   -1.4464   -2.3366 H       1  CRO11       0.0620
    109 H9        -14.9500   -3.8872   -2.0760 H       1  CRO11       0.0618
@<TRIPOS>BOND
     1    74    71    1
     2    75    71    1
     3    71    73    1
     4    71    66    1
     5    51    50    1
     6    53    50    1
     7    50    52    1
     8    50    44    1
     9    72    66    1
    10    66    65    1
    11    66    67    1
    12    68    67    1
    13    44    43    1
    14    44    46    1
    15    65    70    2
    16    65    62    1
    17    67    69    1
    18    48    46    1
    19    62    58    1
    20    60    55    1
    21    63    58    1
    22    38    33    1
    23    43    40    1
    24    43    45    2
    25    46    47    1
    26    46    49    1
    27    40    36    1
    28    58    55    1
    29    58    64    1
    30    42    36    1
    31    55    59    1
    32    55    54    1
    33    61    59    1
    34    39    37    1
    35    36    33    1
    36    36    41    1
    37    33    37    1
    38    33    32    1
    39    56    54    1
    40    27    12    1
    41    24    20    1
    42    31    54    1
    43    31    19    1
    44    54    57    1
    45    30    32    1
    46    30    13    1
    47    34    32    1
    48    32    35    1
    49    12    13   ar
    50    12    11   ar
    51    20    19   ar
    52    20    21   ar
    53    19    18   ar
    54    13    14   ar
    55    26    11    1
    56    11    10   ar
    57    25    21    1
    58    21    16   ar
    59    18    23    1
    60    18    17   ar
    61    14    28    1
    62    14    15   ar
    63    16    17   ar
    64    16     1    1
    65    10    15   ar
    66    10     1    1
    67    17    22    1
    68    15    29    1
    69     1     2    1
    70     1     6    1
    71     5     2    1
    72     8     6    1
    73     2     3    1
    74     2     4    1
    75     6     9    1
    76     6     7    1
    77    84    82    1
    78    87    83    1
    79    91    77    1
    80    77    76   ar
    81    77    78   ar
    82    82    76    1
    83    82    83    1
    84    86    83    1
    85    92    78    1
    86    76    81   ar
    87    78    79   ar
    88    83    85    1
    89    79    89    1
    90    79    80   ar
    91    81    80   ar
    92    81    88    1
    93    80    90    1
    94   101    99    1
    95   104   100    1
    96   108    94    1
    97    94    93   ar
    98    94    95   ar
    99    99    93    1
   100    99   100    1
   101   103   100    1
   102   109    95    1
   103    93    98   ar
   104    95    96   ar
   105   100   102    1
   106    96   106    1
   107    96    97   ar
   108    98    97   ar
   109    98   105    1
   110    97   107    1
   111    82    44    1
   112    99    67    1
