@<TRIPOS>MOLECULE
*****
  109   112     1     0     0
SMALL
gas


@<TRIPOS>ATOM
      1 C           -0.0630    -0.1760     4.3280 c3         1 VEA       0.014609
      2 C1           0.0500     1.1560     5.1180 c3         1 VEA      -0.051690
      3 H            0.9490     1.1680     5.7480 hc         1 VEA       0.024276
      4 H1          -0.8080     1.3070     5.7830 hc         1 VEA       0.024276
      5 H2           0.1130     2.0270     4.4540 hc         1 VEA       0.024276
      6 C2          -0.2740    -1.2850     5.3930 c3         1 VEA      -0.051690
      7 H3           0.4930    -1.2470     6.1760 hc         1 VEA       0.024276
      8 H4          -0.2490    -2.2900     4.9560 hc         1 VEA       0.024276
      9 H5          -1.2440    -1.1730     5.8930 hc         1 VEA       0.024276
     10 C3           1.2640    -0.3170     3.5440 ca         1 VEA      -0.037779
     11 C4           1.5110     0.5120     2.4340 ca         1 VEA      -0.055557
     12 C5           2.7240     0.4540     1.7430 ca         1 VEA      -0.031490
     13 C6           3.7310    -0.4230     2.1430 ca         1 VEA       0.075038
     14 C7           3.5030    -1.2610     3.2290 ca         1 VEA      -0.031490
     15 C8           2.2840    -1.2070     3.9220 ca         1 VEA      -0.055557
     16 C9          -1.2960    -0.2370     3.3930 ca         1 VEA      -0.037779
     17 C10         -2.2870     0.7570     3.3750 ca         1 VEA      -0.055557
     18 C11         -3.4260     0.6420     2.5630 ca         1 VEA      -0.031490
     19 C12         -3.6090    -0.4750     1.7500 ca         1 VEA       0.075038
     20 C13         -2.6240    -1.4610     1.7390 ca         1 VEA      -0.031490
     21 C14         -1.4840    -1.3460     2.5450 ca         1 VEA      -0.055557
     22 H6          -2.2120     1.6420     4.0020 ha         1 VEA       0.062694
     23 H7          -4.1550     1.4440     2.6090 ha         1 VEA       0.065055
     24 H8          -2.7460    -2.3370     1.1060 ha         1 VEA       0.065055
     25 H9          -0.7430    -2.1430     2.5120 ha         1 VEA       0.062694
     26 H10          0.7570     1.2220     2.0990 ha         1 VEA       0.062694
     27 H11          2.8870     1.1110     0.8920 ha         1 VEA       0.065055
     28 H12          4.2510    -1.9700     3.5690 ha         1 VEA       0.065055
     29 H13          2.1640    -1.8730     4.7720 ha         1 VEA       0.062694
     30 O            4.8720    -0.3640     1.3940 os         1 VEA      -0.343351
     31 O1          -4.6920    -0.7190     0.9450 os         1 VEA      -0.343351
     32 C15          6.0080    -1.0930     1.8610 c3         1 VEA       0.081544
     33 C16          7.1970    -0.7700     0.9500 c3         1 VEA       0.101764
     34 H14          5.8080    -2.1710     1.8230 h1         1 VEA       0.060081
     35 H15          6.2530    -0.8200     2.8960 h1         1 VEA       0.060081
     36 C17          7.6090     0.7020     1.0640 c3         1 VEA       0.084596
     37 O2           8.3080    -1.6070     1.2930 oh         1 VEA      -0.388274
     38 H16          6.9330    -0.9930    -0.0910 h1         1 VEA       0.065019
     39 H17          9.0340    -1.3630     0.6850 ho         1 VEA       0.210692
     40 O3           8.5490     0.9760     0.0080 os         1 VEA      -0.312973
     41 H18          8.0980     0.8870     2.0280 h1         1 VEA       0.060196
     42 H19          6.7430     1.3620     0.9460 h1         1 VEA       0.060196
     43 C18          8.9600     2.2730    -0.0550 c          1 VEA       0.263728
     44 C19          9.7970     2.4810    -1.3030 c3         1 VEA       0.042890
     45 O4           8.6710     3.1410     0.7560 o          1 VEA      -0.266321
     46 C20         11.2380     1.9790    -1.0900 c3         1 VEA      -0.034642
     47 H21         11.9040     2.8470    -1.0040 hc         1 VEA       0.028082
     48 H22         11.3290     1.4460    -0.1340 hc         1 VEA       0.028082
     49 C21          9.7800     3.9540    -1.7180 c3         1 VEA      -0.053050
     50 H23          9.2930     1.9310    -2.1070 hc         1 VEA       0.040673
     51 H24         10.3310     4.0990    -2.6530 hc         1 VEA       0.023856
     52 H25         10.2330     4.5920    -0.9510 hc         1 VEA       0.023856
     53 H26          8.7530     4.3030    -1.8710 hc         1 VEA       0.023856
     54 C22         -5.7170     0.2810     0.9380 c3         1 VEA       0.081544
     55 C23         -6.9010    -0.1740     0.0680 c3         1 VEA       0.101764
     56 H27         -5.2950     1.2060     0.5270 h1         1 VEA       0.060081
     57 H28         -6.0770     0.4460     1.9610 h1         1 VEA       0.060081
     58 C24         -7.7790     1.0350    -0.2700 c3         1 VEA       0.084607
     59 O5          -7.6870    -1.1370     0.7860 oh         1 VEA      -0.388274
     60 H29         -6.5540    -0.6690    -0.8460 h1         1 VEA       0.065019
     61 H30         -8.4840    -1.3020     0.2480 ho         1 VEA       0.210692
     62 O6          -8.9470     0.6140    -1.0010 os         1 VEA      -0.312742
     63 H31         -7.1930     1.7480    -0.8610 h1         1 VEA       0.060196
     64 H32         -8.1260     1.5150     0.6530 h1         1 VEA       0.060196
     65 C25         -9.6340     1.6570    -1.5530 c          1 VEA       0.267164
     66 C26        -10.9790     1.2280    -2.1500 c3         1 VEA       0.057309
     67 C27        -11.8580     0.7060    -0.9950 c3         1 VEA      -0.049867
     68 H33        -11.4340    -0.1880    -0.5240 hc         1 VEA       0.024155
     69 H34        -12.8710     0.4670    -1.3370 hc         1 VEA       0.024155
     70 H35        -11.9480     1.4580    -0.2020 hc         1 VEA       0.024155
     71 O7          -9.2310     2.8150    -1.5340 o          1 VEA      -0.265976
     72 C28        -11.6750     2.5100    -2.6810 c3         1 VEA      -0.049867
     73 H37        -11.7940     3.2600    -1.8890 hc         1 VEA       0.024155
     74 H38        -12.6750     2.2870    -3.0710 hc         1 VEA       0.024155
     75 H39        -11.0970     2.9780    -3.4850 hc         1 VEA       0.024155
     76 C29         11.3800    -0.3870    -1.9690 ca         1 CRO      -0.045167
     77 C31         10.1500    -0.9100    -2.4020 ca         1 CRO      -0.058776
     78 C33          9.8000    -2.2360    -2.1390 ca         1 CRO      -0.061988
     79 C35         10.6760    -3.0650    -1.4440 ca         1 CRO      -0.062252
     80 C37         11.8990    -2.5650    -1.0070 ca         1 CRO      -0.061988
     81 C39         12.2450    -1.2350    -1.2590 ca         1 CRO      -0.058776
     82 C41         11.7220     1.0720    -2.2470 c3         1 CRO      -0.018271
     83 C43         13.2160     1.3020    -2.5150 c3         1 CRO      -0.058391
     84 H20         11.2160     1.3650    -3.1770 hc         1 CRO       0.034963
     85 H40         13.8240     1.1650    -1.6150 hc         1 CRO       0.023657
     86 H42         13.3830     2.3270    -2.8660 hc         1 CRO       0.023657
     87 H44         13.5890     0.6220    -3.2890 hc         1 CRO       0.023657
     88 H46         13.2030    -0.8770    -0.8930 ha         1 CRO       0.062575
     89 H48         10.4080    -4.0990    -1.2440 ha         1 CRO       0.062273
     90 H50         12.5880    -3.2100    -0.4680 ha         1 CRO       0.062283
     91 H52          9.4490    -0.2870    -2.9530 ha         1 CRO       0.062575
     92 H54          8.8430    -2.6240    -2.4790 ha         1 CRO       0.062283
     93 C30        -11.0230    -1.2460    -3.0190 ca         1 CRO      -0.044120
     94 C32        -12.3020    -1.8160    -3.1650 ca         1 CRO      -0.058741
     95 C34        -12.5320    -3.1590    -2.8630 ca         1 CRO      -0.061987
     96 C36        -11.4860    -3.9560    -2.4130 ca         1 CRO      -0.062252
     97 C38        -10.2120    -3.4100    -2.2630 ca         1 CRO      -0.061987
     98 C40         -9.9810    -2.0640    -2.5630 ca         1 CRO      -0.058741
     99 C42        -10.8340     0.2290    -3.3540 c3         1 CRO      -0.004518
    100 C44         -9.5830     0.4730    -4.2180 c3         1 CRO      -0.057373
    101 H36        -11.6640     0.4560    -4.0420 hc         1 CRO       0.036042
    102 H41         -8.6530     0.2530    -3.6840 hc         1 CRO       0.023692
    103 H43         -9.5360     1.5120    -4.5580 hc         1 CRO       0.023692
    104 H45         -9.6010    -0.1640    -5.1100 hc         1 CRO       0.023692
    105 H47         -8.9760    -1.6720    -2.4390 ha         1 CRO       0.062576
    106 H49        -11.6620    -5.0030    -2.1800 ha         1 CRO       0.062273
    107 H51         -9.3950    -4.0360    -1.9150 ha         1 CRO       0.062283
    108 H53        -13.1380    -1.2120    -3.5150 ha         1 CRO       0.062576
    109 H55        -13.5270    -3.5790    -2.9820 ha         1 CRO       0.062283
@<TRIPOS>BOND
     1    74    72 1   
     2    75    72 1   
     3    72    73 1   
     4    72    66 1   
     5    51    49 1   
     6    53    49 1   
     7    49    52 1   
     8    49    44 1   
     9    66    65 1   
    10    66    67 1   
    11    69    67 1   
    12    50    44 1   
    13    44    43 1   
    14    44    46 1   
    15    65    71 2   
    16    65    62 1   
    17    67    70 1   
    18    67    68 1   
    19    47    46 1   
    20    62    58 1   
    21    60    55 1   
    22    63    58 1   
    23    38    33 1   
    24    43    40 1   
    25    43    45 2   
    26    46    48 1   
    27    40    36 1   
    28    58    55 1   
    29    58    64 1   
    30    42    36 1   
    31    55    59 1   
    32    55    54 1   
    33    61    59 1   
    34    39    37 1   
    35    36    33 1   
    36    36    41 1   
    37    33    37 1   
    38    33    32 1   
    39    56    54 1   
    40    27    12 1   
    41    24    20 1   
    42    31    54 1   
    43    31    19 1   
    44    54    57 1   
    45    30    32 1   
    46    30    13 1   
    47    34    32 1   
    48    32    35 1   
    49    12    13 ar  
    50    12    11 ar  
    51    20    19 ar  
    52    20    21 ar  
    53    19    18 ar  
    54    13    14 ar  
    55    26    11 1   
    56    11    10 ar  
    57    25    21 1   
    58    21    16 ar  
    59    18    23 1   
    60    18    17 ar  
    61    14    28 1   
    62    14    15 ar  
    63    16    17 ar  
    64    16     1 1   
    65    10    15 ar  
    66    10     1 1   
    67    17    22 1   
    68    15    29 1   
    69     1     2 1   
    70     1     6 1   
    71     5     2 1   
    72     8     6 1   
    73     2     3 1   
    74     2     4 1   
    75     6     9 1   
    76     6     7 1   
    77    84    82 1   
    78    87    83 1   
    79    91    77 1   
    80    77    76 ar  
    81    77    78 ar  
    82    82    76 1   
    83    82    83 1   
    84    86    83 1   
    85    92    78 1   
    86    76    81 ar  
    87    78    79 ar  
    88    83    85 1   
    89    79    89 1   
    90    79    80 ar  
    91    81    80 ar  
    92    81    88 1   
    93    80    90 1   
    94   101    99 1   
    95   104   100 1   
    96   108    94 1   
    97    94    93 ar  
    98    94    95 ar  
    99    99    93 1   
   100    99   100 1   
   101   103   100 1   
   102   109    95 1   
   103    93    98 ar  
   104    95    96 ar  
   105   100   102 1   
   106    96   106 1   
   107    96    97 ar  
   108    98    97 ar  
   109    98   105 1   
   110    97   107 1   
   111    82    46 1   
   112    99    66 1   
@<TRIPOS>SUBSTRUCTURE
     1 VEA         1 TEMP              0 ****  ****    0 ROOT
