@<TRIPOS>MOLECULE
*****
 109 112 0 0 0
SMALL
GASTEIGER

@<TRIPOS>ATOM
      1 C          -0.0630   -0.1760    4.3278 C.3     1  VEA1        0.0151
      2 C1          0.0501    1.1560    5.1177 C.3     1  VEA1       -0.0517
      3 H           0.9485    1.1676    5.7480 H       1  VEA1        0.0241
      4 H1         -0.8084    1.3073    5.7829 H       1  VEA1        0.0241
      5 H2          0.1132    2.0270    4.4542 H       1  VEA1        0.0241
      6 C2         -0.2738   -1.2847    5.3933 C.3     1  VEA1       -0.0517
      7 H3          0.4929   -1.2470    6.1764 H       1  VEA1        0.0241
      8 H4         -0.2491   -2.2898    4.9558 H       1  VEA1        0.0241
      9 H5         -1.2444   -1.1728    5.8930 H       1  VEA1        0.0241
     10 C3          1.2640   -0.3167    3.5441 C.ar    1  VEA1       -0.0372
     11 C4          1.5106    0.5121    2.4343 C.ar    1  VEA1       -0.0543
     12 C5          2.7244    0.4544    1.7431 C.ar    1  VEA1       -0.0197
     13 C6          3.7313   -0.4226    2.1427 C.ar    1  VEA1        0.1206
     14 C7          3.5032   -1.2613    3.2289 C.ar    1  VEA1       -0.0197
     15 C8          2.2840   -1.2070    3.9220 C.ar    1  VEA1       -0.0543
     16 C9         -1.2964   -0.2372    3.3927 C.ar    1  VEA1       -0.0372
     17 C10        -2.2874    0.7572    3.3752 C.ar    1  VEA1       -0.0543
     18 C11        -3.4261    0.6418    2.5635 C.ar    1  VEA1       -0.0197
     19 C12        -3.6091   -0.4750    1.7503 C.ar    1  VEA1        0.1206
     20 C13        -2.6244   -1.4612    1.7389 C.ar    1  VEA1       -0.0197
     21 C14        -1.4844   -1.3458    2.5453 C.ar    1  VEA1       -0.0543
     22 H6         -2.2115    1.6418    4.0016 H       1  VEA1        0.0622
     23 H7         -4.1550    1.4438    2.6087 H       1  VEA1        0.0654
     24 H8         -2.7462   -2.3365    1.1057 H       1  VEA1        0.0654
     25 H9         -0.7433   -2.1425    2.5116 H       1  VEA1        0.0622
     26 H10         0.7566    1.2219    2.0985 H       1  VEA1        0.0622
     27 H11         2.8866    1.1108    0.8918 H       1  VEA1        0.0654
     28 H12         4.2511   -1.9701    3.5692 H       1  VEA1        0.0654
     29 H13         2.1644   -1.8735    4.7719 H       1  VEA1        0.0622
     30 O           4.8717   -0.3637    1.3943 O.3     1  VEA1       -0.4893
     31 O1         -4.6917   -0.7190    0.9447 O.3     1  VEA1       -0.4893
     32 C15         6.0082   -1.0927    1.8614 C.3     1  VEA1        0.1186
     33 C16         7.1965   -0.7702    0.9502 C.3     1  VEA1        0.1230
     34 H14         5.8080   -2.1706    1.8230 H       1  VEA1        0.0724
     35 H15         6.2528   -0.8199    2.8962 H       1  VEA1        0.0724
     36 C17         7.6088    0.7020    1.0641 C.3     1  VEA1        0.1215
     37 O2          8.3082   -1.6073    1.2933 O.3     1  VEA1       -0.3850
     38 H16         6.9328   -0.9933   -0.0907 H       1  VEA1        0.0662
     39 H17         9.0341   -1.3628    0.6854 H       1  VEA1        0.2101
     40 O3          8.5485    0.9755    0.0083 O.3     1  VEA1       -0.4617
     41 H18         8.0979    0.8872    2.0276 H       1  VEA1        0.0725
     42 H19         6.7426    1.3622    0.9455 H       1  VEA1        0.0725
     43 C18         8.9603    2.2732   -0.0547 C.2     1  VEA1        0.3097
     44 C19         9.7968    2.4814   -1.3031 C.3     1  VEA1        0.0508
     45 O4          8.6714    3.1412    0.7565 O.2     1  VEA1       -0.2506
     46 C20        11.2378    1.9787   -1.0896 C.3     1  VEA1       -0.0525
     47 H21        11.9044    2.8469   -1.0040 H       1  VEA1        0.0237
     48 H22        11.3289    1.4455   -0.1338 H       1  VEA1        0.0237
     49 C21         9.7800    3.9535   -1.7180 C.3     1  VEA1       -0.0525
     50 H23         9.2929    1.9308   -2.1065 H       1  VEA1        0.0408
     51 H24        10.3310    4.0987   -2.6531 H       1  VEA1        0.0237
     52 H25        10.2331    4.5921   -0.9514 H       1  VEA1        0.0237
     53 H26         8.7531    4.3028   -1.8715 H       1  VEA1        0.0237
     54 C22        -5.7174    0.2810    0.9379 C.3     1  VEA1        0.1186
     55 C23        -6.9014   -0.1739    0.0677 C.3     1  VEA1        0.1230
     56 H27        -5.2947    1.2061    0.5275 H       1  VEA1        0.0724
     57 H28        -6.0773    0.4458    1.9612 H       1  VEA1        0.0724
     58 C24        -7.7790    1.0349   -0.2699 C.3     1  VEA1        0.1215
     59 O5         -7.6870   -1.1368    0.7859 O.3     1  VEA1       -0.3850
     60 H29        -6.5539   -0.6686   -0.8459 H       1  VEA1        0.0662
     61 H30        -8.4841   -1.3022    0.2485 H       1  VEA1        0.2101
     62 O6         -8.9474    0.6140   -1.0006 O.3     1  VEA1       -0.4617
     63 H31        -7.1926    1.7483   -0.8614 H       1  VEA1        0.0725
     64 H32        -8.1255    1.5148    0.6534 H       1  VEA1        0.0725
     65 C25        -9.6337    1.6568   -1.5526 C.2     1  VEA1        0.3097
     66 C26       -10.9787    1.2279   -2.1498 C.3     1  VEA1        0.0508
     67 C27       -11.8579    0.7055   -0.9950 C.3     1  VEA1       -0.0525
     68 H33       -11.4338   -0.1877   -0.5238 H       1  VEA1        0.0237
     69 H34       -12.8707    0.4674   -1.3373 H       1  VEA1        0.0237
     70 H35       -11.9477    1.4576   -0.2015 H       1  VEA1        0.0237
     71 O7         -9.2309    2.8149   -1.5343 O.2     1  VEA1       -0.2506
     72 C28       -11.6752    2.5103   -2.6806 C.3     1  VEA1       -0.0525
     73 H37       -11.7936    3.2598   -1.8886 H       1  VEA1        0.0237
     74 H38       -12.6749    2.2868   -3.0707 H       1  VEA1        0.0237
     75 H39       -11.0972    2.9785   -3.4851 H       1  VEA1        0.0237
     76 C          11.3796   -0.3872   -1.9691 C.ar    1  CRO01      -0.0476
     77 C1         10.1503   -0.9097   -2.4024 C.ar    1  CRO01      -0.0586
     78 C2          9.7999   -2.2361   -2.1385 C.ar    1  CRO01      -0.0615
     79 C3         10.6763   -3.0647   -1.4439 C.ar    1  CRO01      -0.0617
     80 C4         11.8993   -2.5650   -1.0068 C.ar    1  CRO01      -0.0615
     81 C5         12.2446   -1.2351   -1.2594 C.ar    1  CRO01      -0.0586
     82 C6         11.7221    1.0717   -2.2471 C.3     1  CRO01      -0.0305
     83 C7         13.2163    1.3023   -2.5151 C.3     1  CRO01      -0.0613
     84 H1         11.2162    1.3650   -3.1774 H       1  CRO01       0.0311
     85 H2         13.8240    1.1649   -1.6146 H       1  CRO01       0.0233
     86 H3         13.3835    2.3270   -2.8664 H       1  CRO01       0.0233
     87 H4         13.5890    0.6220   -3.2887 H       1  CRO01       0.0233
     88 H5         13.2032   -0.8772   -0.8926 H       1  CRO01       0.0620
     89 H6         10.4079   -4.0988   -1.2442 H       1  CRO01       0.0618
     90 H7         12.5884   -3.2104   -0.4678 H       1  CRO01       0.0618
     91 H8          9.4492   -0.2869   -2.9530 H       1  CRO01       0.0620
     92 H9          8.8430   -2.6237   -2.4788 H       1  CRO01       0.0618
     93 C         -11.0232   -1.2463   -3.0189 C.ar    1  CRO11      -0.0476
     94 C1        -12.3024   -1.8162   -3.1648 C.ar    1  CRO11      -0.0586
     95 C2        -12.5323   -3.1587   -2.8633 C.ar    1  CRO11      -0.0615
     96 C3        -11.4857   -3.9561   -2.4125 C.ar    1  CRO11      -0.0617
     97 C4        -10.2123   -3.4097   -2.2633 C.ar    1  CRO11      -0.0615
     98 C5         -9.9812   -2.0639   -2.5634 C.ar    1  CRO11      -0.0586
     99 C6        -10.8340    0.2292   -3.3543 C.3     1  CRO11      -0.0305
    100 C7         -9.5827    0.4726   -4.2176 C.3     1  CRO11      -0.0613
    101 H1        -11.6635    0.4564   -4.0421 H       1  CRO11       0.0311
    102 H2         -8.6527    0.2534   -3.6840 H       1  CRO11       0.0233
    103 H3         -9.5359    1.5121   -4.5579 H       1  CRO11       0.0233
    104 H4         -9.6012   -0.1643   -5.1098 H       1  CRO11       0.0233
    105 H5         -8.9757   -1.6721   -2.4395 H       1  CRO11       0.0620
    106 H6        -11.6615   -5.0029   -2.1796 H       1  CRO11       0.0618
    107 H7         -9.3948   -4.0359   -1.9146 H       1  CRO11       0.0618
    108 H8        -13.1376   -1.2119   -3.5146 H       1  CRO11       0.0620
    109 H9        -13.5275   -3.5795   -2.9819 H       1  CRO11       0.0618
@<TRIPOS>BOND
     1    74    72    1
     2    75    72    1
     3    72    73    1
     4    72    66    1
     5    51    49    1
     6    53    49    1
     7    49    52    1
     8    49    44    1
     9    66    65    1
    10    66    67    1
    11    69    67    1
    12    50    44    1
    13    44    43    1
    14    44    46    1
    15    65    71    2
    16    65    62    1
    17    67    70    1
    18    67    68    1
    19    47    46    1
    20    62    58    1
    21    60    55    1
    22    63    58    1
    23    38    33    1
    24    43    40    1
    25    43    45    2
    26    46    48    1
    27    40    36    1
    28    58    55    1
    29    58    64    1
    30    42    36    1
    31    55    59    1
    32    55    54    1
    33    61    59    1
    34    39    37    1
    35    36    33    1
    36    36    41    1
    37    33    37    1
    38    33    32    1
    39    56    54    1
    40    27    12    1
    41    24    20    1
    42    31    54    1
    43    31    19    1
    44    54    57    1
    45    30    32    1
    46    30    13    1
    47    34    32    1
    48    32    35    1
    49    12    13   ar
    50    12    11   ar
    51    20    19   ar
    52    20    21   ar
    53    19    18   ar
    54    13    14   ar
    55    26    11    1
    56    11    10   ar
    57    25    21    1
    58    21    16   ar
    59    18    23    1
    60    18    17   ar
    61    14    28    1
    62    14    15   ar
    63    16    17   ar
    64    16     1    1
    65    10    15   ar
    66    10     1    1
    67    17    22    1
    68    15    29    1
    69     1     2    1
    70     1     6    1
    71     5     2    1
    72     8     6    1
    73     2     3    1
    74     2     4    1
    75     6     9    1
    76     6     7    1
    77    84    82    1
    78    87    83    1
    79    91    77    1
    80    77    76   ar
    81    77    78   ar
    82    82    76    1
    83    82    83    1
    84    86    83    1
    85    92    78    1
    86    76    81   ar
    87    78    79   ar
    88    83    85    1
    89    79    89    1
    90    79    80   ar
    91    81    80   ar
    92    81    88    1
    93    80    90    1
    94   101    99    1
    95   104   100    1
    96   108    94    1
    97    94    93   ar
    98    94    95   ar
    99    99    93    1
   100    99   100    1
   101   103   100    1
   102   109    95    1
   103    93    98   ar
   104    95    96   ar
   105   100   102    1
   106    96   106    1
   107    96    97   ar
   108    98    97   ar
   109    98   105    1
   110    97   107    1
   111    82    46    1
   112    99    66    1
