@<TRIPOS>MOLECULE
*****
 109 112 0 0 0
SMALL
GASTEIGER

@<TRIPOS>ATOM
      1 C           0.3762   -0.1160    4.4647 C.3     1  VEA1        0.0151
      2 C1          0.5486    1.1721    5.3115 C.3     1  VEA1       -0.0517
      3 H           1.4601    1.1257    5.9209 H       1  VEA1        0.0241
      4 H1         -0.2899    1.3189    6.0026 H       1  VEA1        0.0241
      5 H2          0.6246    2.0702    4.6867 H       1  VEA1        0.0241
      6 C2          0.1394   -1.2693    5.4745 C.3     1  VEA1       -0.0517
      7 H3          0.9202   -1.3028    6.2435 H       1  VEA1        0.0241
      8 H4          0.1160   -2.2498    4.9841 H       1  VEA1        0.0241
      9 H5         -0.8176   -1.1464    5.9974 H       1  VEA1        0.0241
     10 C3          1.6840   -0.2677    3.6489 C.ar    1  VEA1       -0.0372
     11 C4          1.9298    0.5927    2.5625 C.ar    1  VEA1       -0.0543
     12 C5          3.1087    0.5006    1.8185 C.ar    1  VEA1       -0.0197
     13 C6          4.0846   -0.4386    2.1454 C.ar    1  VEA1        0.1206
     14 C7          3.8616   -1.3021    3.2131 C.ar    1  VEA1       -0.0197
     15 C8          2.6748   -1.2157    3.9574 C.ar    1  VEA1       -0.0543
     16 C9         -0.8688   -0.0887    3.5433 C.ar    1  VEA1       -0.0372
     17 C10        -1.8518    0.9134    3.6113 C.ar    1  VEA1       -0.0543
     18 C11        -2.9790    0.8906    2.7749 C.ar    1  VEA1       -0.0197
     19 C12        -3.1496   -0.1370    1.8519 C.ar    1  VEA1        0.1206
     20 C13        -2.1800   -1.1339    1.7647 C.ar    1  VEA1       -0.0197
     21 C14        -1.0603   -1.1169    2.6013 C.ar    1  VEA1       -0.0543
     22 H6         -1.7700    1.7360    4.3165 H       1  VEA1        0.0622
     23 H7         -3.6996    1.6957    2.8702 H       1  VEA1        0.0654
     24 H8         -2.2998   -1.9394    1.0444 H       1  VEA1        0.0654
     25 H9         -0.3303   -1.9187    2.5049 H       1  VEA1        0.0622
     26 H10         1.1967    1.3460    2.2794 H       1  VEA1        0.0622
     27 H11         3.2668    1.1754    0.9810 H       1  VEA1        0.0654
     28 H12         4.5861   -2.0601    3.4930 H       1  VEA1        0.0654
     29 H13         2.5531   -1.9093    4.7851 H       1  VEA1        0.0622
     30 O           5.1885   -0.4171    1.3434 O.3     1  VEA1       -0.4893
     31 O1         -4.1907   -0.2722    0.9779 O.3     1  VEA1       -0.4893
     32 C15         6.3344   -1.1513    1.7770 C.3     1  VEA1        0.1186
     33 C16         7.5011   -0.8126    0.8440 C.3     1  VEA1        0.1230
     34 H14         6.1334   -2.2285    1.7279 H       1  VEA1        0.0724
     35 H15         6.6023   -0.8935    2.8099 H       1  VEA1        0.0724
     36 C17         7.8944    0.6651    0.9549 C.3     1  VEA1        0.1215
     37 O2          8.6294   -1.6360    1.1638 O.3     1  VEA1       -0.3850
     38 H16         7.2203   -1.0360   -0.1924 H       1  VEA1        0.0662
     39 H17         9.3394   -1.3818    0.5409 H       1  VEA1        0.2101
     40 O3          8.8146    0.9567   -0.1126 O.3     1  VEA1       -0.4617
     41 H18         8.3941    0.8550    1.9120 H       1  VEA1        0.0725
     42 H19         7.0170    1.3129    0.8507 H       1  VEA1        0.0725
     43 C18         9.1984    2.2634   -0.1779 C.2     1  VEA1        0.3097
     44 C19        10.0213    2.4900   -1.4328 C.3     1  VEA1        0.0508
     45 O4          8.8982    3.1238    0.6349 O.2     1  VEA1       -0.2506
     46 C20        11.4702    2.0030   -1.2353 C.3     1  VEA1       -0.0525
     47 H21        12.1314    2.8777   -1.1797 H       1  VEA1        0.0237
     48 H22        11.5830    1.4893   -0.2713 H       1  VEA1        0.0237
     49 C21         9.9841    3.9656   -1.8340 C.3     1  VEA1       -0.0525
     50 H23         9.5169    1.9407   -2.2367 H       1  VEA1        0.0408
     51 H24        10.5261    4.1257   -2.7719 H       1  VEA1        0.0237
     52 H25        10.4358    4.6024   -1.0650 H       1  VEA1        0.0237
     53 H26         8.9521    4.3045   -1.9766 H       1  VEA1        0.0237
     54 C22        -5.3474    0.5439    1.2003 C.3     1  VEA1        0.1186
     55 C23        -6.4377    0.1040    0.2139 C.3     1  VEA1        0.1230
     56 H27        -5.0853    1.5920    1.0147 H       1  VEA1        0.0724
     57 H28        -5.7023    0.4123    2.2297 H       1  VEA1        0.0724
     58 C24        -7.6083    1.0886    0.1898 C.3     1  VEA1        0.1215
     59 O5         -6.9397   -1.1874    0.5969 O.3     1  VEA1       -0.3850
     60 H29        -6.0135   -0.0155   -0.7900 H       1  VEA1        0.0662
     61 H30        -7.6311   -1.4174   -0.0494 H       1  VEA1        0.2101
     62 O6         -8.4898    0.7002   -0.8843 O.3     1  VEA1       -0.4617
     63 H31        -7.2509    2.1070    0.0002 H       1  VEA1        0.0725
     64 H32        -8.1580    1.0478    1.1376 H       1  VEA1        0.0725
     65 C25        -9.6212    1.4544   -0.9774 C.2     1  VEA1        0.3097
     66 C26       -10.4026    1.0919   -2.2321 C.3     1  VEA1        0.0508
     67 C27       -11.8770    0.8507   -1.8488 C.3     1  VEA1       -0.0525
     68 H34       -12.3365    1.8358   -1.6815 H       1  VEA1        0.0237
     69 H35       -11.9181    0.3530   -0.8693 H       1  VEA1        0.0237
     70 O7         -9.9324    2.3449   -0.1980 O.2     1  VEA1       -0.2506
     71 C28       -10.1853    2.2374   -3.2221 C.3     1  VEA1       -0.0525
     72 H36        -9.9651    0.1815   -2.6491 H       1  VEA1        0.0408
     73 H37       -10.7500    3.1299   -2.9313 H       1  VEA1        0.0237
     74 H38       -10.4780    1.9637   -4.2372 H       1  VEA1        0.0237
     75 H39        -9.1273    2.5220   -3.2646 H       1  VEA1        0.0237
     76 C          11.5838   -0.3738   -2.0938 C.ar    1  CRO01      -0.0476
     77 C1         10.3662   -0.8978   -2.5570 C.ar    1  CRO01      -0.0586
     78 C2         10.0039   -2.2198   -2.2870 C.ar    1  CRO01      -0.0615
     79 C3         10.8565   -3.0420   -1.5560 C.ar    1  CRO01      -0.0617
     80 C4         12.0670   -2.5400   -1.0878 C.ar    1  CRO01      -0.0615
     81 C5         12.4240   -1.2145   -1.3467 C.ar    1  CRO01      -0.0586
     82 C6         11.9425    1.0786   -2.3833 C.3     1  CRO01      -0.0305
     83 C7         13.4402    1.2857   -2.6516 C.3     1  CRO01      -0.0613
     84 H1         11.4409    1.3719   -3.3160 H       1  CRO01       0.0311
     85 H2         14.0449    1.1483   -1.7492 H       1  CRO01       0.0233
     86 H3         13.6221    2.3045   -3.0124 H       1  CRO01       0.0233
     87 H4         13.8040    0.5928   -3.4181 H       1  CRO01       0.0233
     88 H5         13.3723   -0.8539   -0.9562 H       1  CRO01       0.0620
     89 H6         10.5789   -4.0727   -1.3513 H       1  CRO01       0.0618
     90 H7         12.7374   -3.1805   -0.5199 H       1  CRO01       0.0618
     91 H8          9.6840   -0.2794   -3.1357 H       1  CRO01       0.0620
     92 H9          9.0564   -2.6089   -2.6509 H       1  CRO01       0.0618
     93 C         -12.8318   -1.4341   -2.6077 C.ar    1  CRO11      -0.0476
     94 C1        -14.0738   -2.0748   -2.4466 C.ar    1  CRO11      -0.0586
     95 C2        -14.1569   -3.4605   -2.2955 C.ar    1  CRO11      -0.0615
     96 C3        -12.9988   -4.2309   -2.3026 C.ar    1  CRO11      -0.0617
     97 C4        -11.7608   -3.6150   -2.4658 C.ar    1  CRO11      -0.0615
     98 C5        -11.6778   -2.2280   -2.6232 C.ar    1  CRO11      -0.0586
     99 C6        -12.8027    0.0744   -2.8212 C.3     1  CRO11      -0.0305
    100 C7        -12.6138    0.3864   -4.3037 C.3     1  CRO11      -0.0613
    101 H1        -13.8120    0.4333   -2.5688 H       1  CRO11       0.0311
    102 H2        -11.6478    0.0321   -4.6776 H       1  CRO11       0.0233
    103 H3        -12.6966    1.4621   -4.4882 H       1  CRO11       0.0233
    104 H4        -13.3886   -0.1034   -4.9057 H       1  CRO11       0.0233
    105 H5        -10.6973   -1.7925   -2.7759 H       1  CRO11       0.0620
    106 H6        -13.0610   -5.3097   -2.1887 H       1  CRO11       0.0618
    107 H7        -10.8558   -4.2172   -2.4807 H       1  CRO11       0.0618
    108 H8        -14.9958   -1.4966   -2.4493 H       1  CRO11       0.0620
    109 H9        -15.1269   -3.9366   -2.1789 H       1  CRO11       0.0618
@<TRIPOS>BOND
     1    74    71    1
     2    75    71    1
     3    71    73    1
     4    71    66    1
     5    51    49    1
     6    53    49    1
     7    49    52    1
     8    49    44    1
     9    72    66    1
    10    66    65    1
    11    66    67    1
    12    68    67    1
    13    50    44    1
    14    44    43    1
    15    44    46    1
    16    65    70    2
    17    65    62    1
    18    67    69    1
    19    47    46    1
    20    62    58    1
    21    60    55    1
    22    63    58    1
    23    38    33    1
    24    43    40    1
    25    43    45    2
    26    46    48    1
    27    40    36    1
    28    58    55    1
    29    58    64    1
    30    42    36    1
    31    55    59    1
    32    55    54    1
    33    61    59    1
    34    39    37    1
    35    36    33    1
    36    36    41    1
    37    33    37    1
    38    33    32    1
    39    56    54    1
    40    27    12    1
    41    24    20    1
    42    31    54    1
    43    31    19    1
    44    54    57    1
    45    30    32    1
    46    30    13    1
    47    34    32    1
    48    32    35    1
    49    12    13   ar
    50    12    11   ar
    51    20    19   ar
    52    20    21   ar
    53    19    18   ar
    54    13    14   ar
    55    26    11    1
    56    11    10   ar
    57    25    21    1
    58    21    16   ar
    59    18    23    1
    60    18    17   ar
    61    14    28    1
    62    14    15   ar
    63    16    17   ar
    64    16     1    1
    65    10    15   ar
    66    10     1    1
    67    17    22    1
    68    15    29    1
    69     1     2    1
    70     1     6    1
    71     5     2    1
    72     8     6    1
    73     2     3    1
    74     2     4    1
    75     6     9    1
    76     6     7    1
    77    84    82    1
    78    87    83    1
    79    91    77    1
    80    77    76   ar
    81    77    78   ar
    82    82    76    1
    83    82    83    1
    84    86    83    1
    85    92    78    1
    86    76    81   ar
    87    78    79   ar
    88    83    85    1
    89    79    89    1
    90    79    80   ar
    91    81    80   ar
    92    81    88    1
    93    80    90    1
    94   101    99    1
    95   104   100    1
    96   108    94    1
    97    94    93   ar
    98    94    95   ar
    99    99    93    1
   100    99   100    1
   101   103   100    1
   102   109    95    1
   103    93    98   ar
   104    95    96   ar
   105   100   102    1
   106    96   106    1
   107    96    97   ar
   108    98    97   ar
   109    98   105    1
   110    97   107    1
   111    82    46    1
   112    99    67    1
