@<TRIPOS>MOLECULE
*****
  109   112     1     0     0
SMALL
gas


@<TRIPOS>ATOM
      1 C            0.3760    -0.1160     4.4650 c3         1 VEA       0.014609
      2 C1           0.5490     1.1720     5.3110 c3         1 VEA      -0.051690
      3 H            1.4600     1.1260     5.9210 hc         1 VEA       0.024276
      4 H1          -0.2900     1.3190     6.0030 hc         1 VEA       0.024276
      5 H2           0.6250     2.0700     4.6870 hc         1 VEA       0.024276
      6 C2           0.1390    -1.2690     5.4740 c3         1 VEA      -0.051690
      7 H3           0.9200    -1.3030     6.2440 hc         1 VEA       0.024276
      8 H4           0.1160    -2.2500     4.9840 hc         1 VEA       0.024276
      9 H5          -0.8180    -1.1460     5.9970 hc         1 VEA       0.024276
     10 C3           1.6840    -0.2680     3.6490 ca         1 VEA      -0.037779
     11 C4           1.9300     0.5930     2.5620 ca         1 VEA      -0.055557
     12 C5           3.1090     0.5010     1.8190 ca         1 VEA      -0.031490
     13 C6           4.0850    -0.4390     2.1450 ca         1 VEA       0.075038
     14 C7           3.8620    -1.3020     3.2130 ca         1 VEA      -0.031490
     15 C8           2.6750    -1.2160     3.9570 ca         1 VEA      -0.055557
     16 C9          -0.8690    -0.0890     3.5430 ca         1 VEA      -0.037779
     17 C10         -1.8520     0.9130     3.6110 ca         1 VEA      -0.055557
     18 C11         -2.9790     0.8910     2.7750 ca         1 VEA      -0.031490
     19 C12         -3.1500    -0.1370     1.8520 ca         1 VEA       0.075038
     20 C13         -2.1800    -1.1340     1.7650 ca         1 VEA      -0.031490
     21 C14         -1.0600    -1.1170     2.6010 ca         1 VEA      -0.055557
     22 H6          -1.7700     1.7360     4.3160 ha         1 VEA       0.062694
     23 H7          -3.7000     1.6960     2.8700 ha         1 VEA       0.065055
     24 H8          -2.3000    -1.9390     1.0440 ha         1 VEA       0.065055
     25 H9          -0.3300    -1.9190     2.5050 ha         1 VEA       0.062694
     26 H10          1.1970     1.3460     2.2790 ha         1 VEA       0.062694
     27 H11          3.2670     1.1750     0.9810 ha         1 VEA       0.065055
     28 H12          4.5860    -2.0600     3.4930 ha         1 VEA       0.065055
     29 H13          2.5530    -1.9090     4.7850 ha         1 VEA       0.062694
     30 O            5.1890    -0.4170     1.3430 os         1 VEA      -0.343351
     31 O1          -4.1910    -0.2720     0.9780 os         1 VEA      -0.343351
     32 C15          6.3340    -1.1510     1.7770 c3         1 VEA       0.081544
     33 C16          7.5010    -0.8130     0.8440 c3         1 VEA       0.101764
     34 H14          6.1330    -2.2280     1.7280 h1         1 VEA       0.060081
     35 H15          6.6020    -0.8930     2.8100 h1         1 VEA       0.060081
     36 C17          7.8940     0.6650     0.9550 c3         1 VEA       0.084596
     37 O2           8.6290    -1.6360     1.1640 oh         1 VEA      -0.388274
     38 H16          7.2200    -1.0360    -0.1920 h1         1 VEA       0.065019
     39 H17          9.3390    -1.3820     0.5410 ho         1 VEA       0.210692
     40 O3           8.8150     0.9570    -0.1130 os         1 VEA      -0.312973
     41 H18          8.3940     0.8550     1.9120 h1         1 VEA       0.060196
     42 H19          7.0170     1.3130     0.8510 h1         1 VEA       0.060196
     43 C18          9.1980     2.2630    -0.1780 c          1 VEA       0.263728
     44 C19         10.0210     2.4900    -1.4330 c3         1 VEA       0.042890
     45 O4           8.8980     3.1240     0.6350 o          1 VEA      -0.266321
     46 C20         11.4700     2.0030    -1.2350 c3         1 VEA      -0.034642
     47 H21         12.1310     2.8780    -1.1800 hc         1 VEA       0.028082
     48 H22         11.5830     1.4890    -0.2710 hc         1 VEA       0.028082
     49 C21          9.9840     3.9660    -1.8340 c3         1 VEA      -0.053050
     50 H23          9.5170     1.9410    -2.2370 hc         1 VEA       0.040673
     51 H24         10.5260     4.1260    -2.7720 hc         1 VEA       0.023856
     52 H25         10.4360     4.6020    -1.0650 hc         1 VEA       0.023856
     53 H26          8.9520     4.3040    -1.9770 hc         1 VEA       0.023856
     54 C22         -5.3470     0.5440     1.2000 c3         1 VEA       0.081544
     55 C23         -6.4380     0.1040     0.2140 c3         1 VEA       0.101764
     56 H27         -5.0850     1.5920     1.0150 h1         1 VEA       0.060081
     57 H28         -5.7020     0.4120     2.2300 h1         1 VEA       0.060081
     58 C24         -7.6080     1.0890     0.1900 c3         1 VEA       0.084596
     59 O5          -6.9400    -1.1870     0.5970 oh         1 VEA      -0.388274
     60 H29         -6.0130    -0.0150    -0.7900 h1         1 VEA       0.065019
     61 H30         -7.6310    -1.4170    -0.0490 ho         1 VEA       0.210692
     62 O6          -8.4900     0.7000    -0.8840 os         1 VEA      -0.312973
     63 H31         -7.2510     2.1070     0.0000 h1         1 VEA       0.060196
     64 H32         -8.1580     1.0480     1.1380 h1         1 VEA       0.060196
     65 C25         -9.6210     1.4540    -0.9770 c          1 VEA       0.263728
     66 C26        -10.4030     1.0920    -2.2320 c3         1 VEA       0.042890
     67 C27        -11.8770     0.8510    -1.8490 c3         1 VEA      -0.034642
     68 H34        -12.3360     1.8360    -1.6810 hc         1 VEA       0.028082
     69 H35        -11.9180     0.3530    -0.8690 hc         1 VEA       0.028082
     70 O7          -9.9320     2.3450    -0.1980 o          1 VEA      -0.266321
     71 C28        -10.1850     2.2370    -3.2220 c3         1 VEA      -0.053050
     72 H36         -9.9650     0.1810    -2.6490 hc         1 VEA       0.040673
     73 H37        -10.7500     3.1300    -2.9310 hc         1 VEA       0.023856
     74 H38        -10.4780     1.9640    -4.2370 hc         1 VEA       0.023856
     75 H39         -9.1270     2.5220    -3.2650 hc         1 VEA       0.023856
     76 C29         11.5840    -0.3740    -2.0940 ca         1 CRO      -0.045167
     77 C31         10.3660    -0.8980    -2.5570 ca         1 CRO      -0.058776
     78 C33         10.0040    -2.2200    -2.2870 ca         1 CRO      -0.061988
     79 C35         10.8570    -3.0420    -1.5560 ca         1 CRO      -0.062252
     80 C37         12.0670    -2.5400    -1.0880 ca         1 CRO      -0.061988
     81 C39         12.4240    -1.2140    -1.3470 ca         1 CRO      -0.058776
     82 C41         11.9430     1.0790    -2.3830 c3         1 CRO      -0.018271
     83 C43         13.4400     1.2860    -2.6520 c3         1 CRO      -0.058391
     84 H20         11.4410     1.3720    -3.3160 hc         1 CRO       0.034963
     85 H40         14.0450     1.1480    -1.7490 hc         1 CRO       0.023657
     86 H42         13.6220     2.3040    -3.0120 hc         1 CRO       0.023657
     87 H44         13.8040     0.5930    -3.4180 hc         1 CRO       0.023657
     88 H46         13.3720    -0.8540    -0.9560 ha         1 CRO       0.062575
     89 H48         10.5790    -4.0730    -1.3510 ha         1 CRO       0.062273
     90 H50         12.7370    -3.1800    -0.5200 ha         1 CRO       0.062283
     91 H52          9.6840    -0.2790    -3.1360 ha         1 CRO       0.062575
     92 H54          9.0560    -2.6090    -2.6510 ha         1 CRO       0.062283
     93 C30        -12.8320    -1.4340    -2.6080 ca         1 CRO      -0.045167
     94 C32        -14.0740    -2.0750    -2.4470 ca         1 CRO      -0.058776
     95 C34        -14.1570    -3.4610    -2.2960 ca         1 CRO      -0.061988
     96 C36        -12.9990    -4.2310    -2.3030 ca         1 CRO      -0.062252
     97 C38        -11.7610    -3.6150    -2.4660 ca         1 CRO      -0.061988
     98 C40        -11.6780    -2.2280    -2.6230 ca         1 CRO      -0.058776
     99 C42        -12.8030     0.0740    -2.8210 c3         1 CRO      -0.018271
    100 C44        -12.6140     0.3860    -4.3040 c3         1 CRO      -0.058391
    101 H33        -13.8120     0.4330    -2.5690 hc         1 CRO       0.034963
    102 H41        -11.6480     0.0320    -4.6780 hc         1 CRO       0.023657
    103 H43        -12.6970     1.4620    -4.4880 hc         1 CRO       0.023657
    104 H45        -13.3890    -0.1030    -4.9060 hc         1 CRO       0.023657
    105 H47        -10.6970    -1.7920    -2.7760 ha         1 CRO       0.062575
    106 H49        -13.0610    -5.3100    -2.1890 ha         1 CRO       0.062273
    107 H51        -10.8560    -4.2170    -2.4810 ha         1 CRO       0.062283
    108 H53        -14.9960    -1.4970    -2.4490 ha         1 CRO       0.062575
    109 H55        -15.1270    -3.9370    -2.1790 ha         1 CRO       0.062283
@<TRIPOS>BOND
     1    74    71 1   
     2    75    71 1   
     3    71    73 1   
     4    71    66 1   
     5    51    49 1   
     6    53    49 1   
     7    49    52 1   
     8    49    44 1   
     9    72    66 1   
    10    66    65 1   
    11    66    67 1   
    12    68    67 1   
    13    50    44 1   
    14    44    43 1   
    15    44    46 1   
    16    65    70 2   
    17    65    62 1   
    18    67    69 1   
    19    47    46 1   
    20    62    58 1   
    21    60    55 1   
    22    63    58 1   
    23    38    33 1   
    24    43    40 1   
    25    43    45 2   
    26    46    48 1   
    27    40    36 1   
    28    58    55 1   
    29    58    64 1   
    30    42    36 1   
    31    55    59 1   
    32    55    54 1   
    33    61    59 1   
    34    39    37 1   
    35    36    33 1   
    36    36    41 1   
    37    33    37 1   
    38    33    32 1   
    39    56    54 1   
    40    27    12 1   
    41    24    20 1   
    42    31    54 1   
    43    31    19 1   
    44    54    57 1   
    45    30    32 1   
    46    30    13 1   
    47    34    32 1   
    48    32    35 1   
    49    12    13 ar  
    50    12    11 ar  
    51    20    19 ar  
    52    20    21 ar  
    53    19    18 ar  
    54    13    14 ar  
    55    26    11 1   
    56    11    10 ar  
    57    25    21 1   
    58    21    16 ar  
    59    18    23 1   
    60    18    17 ar  
    61    14    28 1   
    62    14    15 ar  
    63    16    17 ar  
    64    16     1 1   
    65    10    15 ar  
    66    10     1 1   
    67    17    22 1   
    68    15    29 1   
    69     1     2 1   
    70     1     6 1   
    71     5     2 1   
    72     8     6 1   
    73     2     3 1   
    74     2     4 1   
    75     6     9 1   
    76     6     7 1   
    77    84    82 1   
    78    87    83 1   
    79    91    77 1   
    80    77    76 ar  
    81    77    78 ar  
    82    82    76 1   
    83    82    83 1   
    84    86    83 1   
    85    92    78 1   
    86    76    81 ar  
    87    78    79 ar  
    88    83    85 1   
    89    79    89 1   
    90    79    80 ar  
    91    81    80 ar  
    92    81    88 1   
    93    80    90 1   
    94   101    99 1   
    95   104   100 1   
    96   108    94 1   
    97    94    93 ar  
    98    94    95 ar  
    99    99    93 1   
   100    99   100 1   
   101   103   100 1   
   102   109    95 1   
   103    93    98 ar  
   104    95    96 ar  
   105   100   102 1   
   106    96   106 1   
   107    96    97 ar  
   108    98    97 ar  
   109    98   105 1   
   110    97   107 1   
   111    82    46 1   
   112    99    67 1   
@<TRIPOS>SUBSTRUCTURE
     1 VEA         1 TEMP              0 ****  ****    0 ROOT
