@<TRIPOS>MOLECULE
*****
 109 112 0 0 0
SMALL
GASTEIGER
@<TRIPOS>ATOM
      1 C             25.14     24.12     28.38  C.3    1  VEA        0.0151
      2 C1            25.36     25.39     29.26  C.3    1  VEA       -0.0517
      3 H             26.29      25.3     29.83    H    1  VEA        0.0241
      4 H1            24.54     25.52     29.97    H    1  VEA        0.0241
      5 H2            25.43     26.29     28.64    H    1  VEA        0.0241
      6 C2            24.92     22.94     29.36  C.3    1  VEA       -0.0517
      7 H3            25.71     22.89     30.12    H    1  VEA        0.0241
      8 H4            24.89     21.98     28.82    H    1  VEA        0.0241
      9 H5            23.96     23.05     29.88    H    1  VEA        0.0241
     10 C3             26.4     23.96     27.52 C.ar    1  VEA       -0.0372
     11 C4            26.59     24.81     26.41 C.ar    1  VEA       -0.0543
     12 C5            27.76     24.75     25.63 C.ar    1  VEA       -0.0197
     13 C6            28.77     23.84     25.95 C.ar    1  VEA        0.1206
     14 C7             28.6     22.98     27.05 C.ar    1  VEA       -0.0197
     15 C8            27.43     23.04     27.83 C.ar    1  VEA       -0.0543
     16 C9            23.89     24.21     27.49 C.ar    1  VEA       -0.0372
     17 C10           22.93     25.24     27.62 C.ar    1  VEA       -0.0543
     18 C11           21.77     25.25     26.82 C.ar    1  VEA       -0.0197
     19 C12           21.55     24.22     25.88 C.ar    1  VEA        0.1206
     20 C13            22.5      23.2     25.74 C.ar    1  VEA       -0.0197
     21 C14           23.66      23.2     26.54 C.ar    1  VEA       -0.0543
     22 H6            23.05     26.04     28.34    H    1  VEA        0.0622
     23 H7            21.05     26.05     26.95    H    1  VEA        0.0654
     24 H8            22.33     22.41     25.02    H    1  VEA        0.0654
     25 H9            24.37     22.39     26.42    H    1  VEA        0.0622
     26 H10           25.82     25.54     26.15    H    1  VEA        0.0622
     27 H11           27.88     25.41     24.78    H    1  VEA        0.0654
     28 H12           29.36     22.26     27.33    H    1  VEA        0.0654
     29 H13           27.34     22.38     28.68    H    1  VEA        0.0622
     30 O             29.92     23.84     25.19  O.3    1  VEA       -0.4893
     31 O1            20.42     24.17     25.09  O.3    1  VEA       -0.4893
     32 C15           31.11     23.13     25.57  C.3    1  VEA        0.1186
     33 C16           32.25     23.45     24.57  C.3    1  VEA        0.1230
     34 H14           30.92     22.05     25.56    H    1  VEA        0.0724
     35 H15           31.42     23.43     26.58    H    1  VEA        0.0724
     36 C17           32.55     24.96     24.53  C.3    1  VEA        0.1215
     37 O2            33.43     22.75     24.96  O.3    1  VEA       -0.3850
     38 H16           31.94     23.12     23.57    H    1  VEA        0.0662
     39 H17           34.15     23.18     24.46    H    1  VEA        0.2101
     40 O3            33.73     25.16     23.72  O.3    1  VEA       -0.4617
     41 H18           32.71     25.34     25.54    H    1  VEA        0.0725
     42 H19            31.7      25.5     24.09    H    1  VEA        0.0725
     43 C18           34.18     26.44     23.58  C.2    1  VEA        0.3097
     44 C19           35.45      26.5     22.72  C.3    1  VEA        0.0508
     45 O4            33.65     27.42     24.07  O.2    1  VEA       -0.2506
     46 C20           36.65     26.95     23.58  C.3    1  VEA       -0.0525
     47 H20           36.48     27.96     23.98    H    1  VEA        0.0237
     48 H21           37.57     26.96     22.99    H    1  VEA        0.0237
     49 H22           36.79     26.27     24.43    H    1  VEA        0.0237
     50 C21           35.24     27.44     21.51  C.3    1  VEA       -0.0525
     51 H23           35.65     25.49     22.34    H    1  VEA        0.0408
     52 H24           36.14     27.45     20.88    H    1  VEA        0.0237
     53 H25           35.04     28.47     21.85    H    1  VEA        0.0237
     54 H26           34.39     27.11      20.9    H    1  VEA        0.0237
     55 C22            19.4     25.18     25.12  C.3    1  VEA        0.1186
     56 C23           18.24     24.76     24.19  C.3    1  VEA        0.1230
     57 H27           19.82     26.13     24.77    H    1  VEA        0.0724
     58 H28           19.01     25.31     26.14    H    1  VEA        0.0724
     59 C24            17.3     25.95      23.9  C.3    1  VEA        0.1215
     60 O5            17.46     23.73     24.81  O.3    1  VEA       -0.3850
     61 H29           18.65     24.41     23.23    H    1  VEA        0.0662
     62 H30           16.65     23.66     24.27    H    1  VEA        0.2101
     63 O6            16.18     25.48     23.12  O.3    1  VEA       -0.4617
     64 H31           17.84     26.73     23.34    H    1  VEA        0.0725
     65 H32           16.94     26.39     24.84    H    1  VEA        0.0725
     66 C25           15.22     26.39     22.78  C.2    1  VEA        0.3097
     67 C26           14.09     25.74     21.98  C.3    1  VEA        0.0508
     68 C27           12.77      25.8     22.79  C.3    1  VEA       -0.0525
     69 H34           11.96      25.3     22.25    H    1  VEA        0.0237
     70 H35           12.48     26.84     22.97    H    1  VEA        0.0237
     71 O7            15.26     27.57     23.07  O.2    1  VEA       -0.2506
     72 C28           13.93     26.42     20.61  C.3    1  VEA       -0.0525
     73 H37           13.67     27.48     20.73    H    1  VEA        0.0237
     74 H38           13.14     25.93     20.02    H    1  VEA        0.0237
     75 H39           14.87     26.36     20.04    H    1  VEA        0.0237
     76 C             12.73     22.72      20.5 C.ar    1 CRO0       -0.0476
     77 C1            11.56     21.95     20.48 C.ar    1 CRO0       -0.0586
     78 C2            11.62     20.55      20.5 C.ar    1 CRO0       -0.0615
     79 C3            12.87      19.9     20.54 C.ar    1 CRO0       -0.0617
     80 C4            14.05     20.67     20.57 C.ar    1 CRO0       -0.0615
     81 C5            13.98     22.07     20.55 C.ar    1 CRO0       -0.0586
     82 C6            12.59     24.24     20.48  C.3    1 CRO0       -0.0305
     83 C7             13.9     25.05     20.51  C.3    1 CRO0       -0.0613
     84 H1            12.03     24.53     19.58    H    1 CRO0        0.0311
     85 H2            14.47     24.83     21.42    H    1 CRO0        0.0233
     86 H3            13.69     26.12     20.48    H    1 CRO0        0.0233
     87 H4            14.53     24.81     19.64    H    1 CRO0        0.0233
     88 H5            14.91     22.63     20.57    H    1 CRO0        0.0620
     89 H6            12.92     18.82     20.56    H    1 CRO0        0.0618
     90 H7            15.01     20.17     20.61    H    1 CRO0        0.0618
     91 H8            10.59     22.43     20.44    H    1 CRO0        0.0620
     92 H9            10.71     19.96     20.48    H    1 CRO0        0.0618
     93 C             10.91     22.28     20.81 C.ar    1 CRO1       -0.0476
     94 C1             9.74     21.51     20.79 C.ar    1 CRO1       -0.0586
     95 C2              9.8     20.11     20.81 C.ar    1 CRO1       -0.0615
     96 C3            11.05     19.46     20.85 C.ar    1 CRO1       -0.0617
     97 C4            12.23     20.23     20.88 C.ar    1 CRO1       -0.0615
     98 C5            12.16     21.63     20.86 C.ar    1 CRO1       -0.0586
     99 C6            10.77      23.8     20.79  C.3    1 CRO1       -0.0305
    100 C7            12.08     24.61     20.82  C.3    1 CRO1       -0.0613
    101 H1            10.21     24.09     19.89    H    1 CRO1        0.0311
    102 H2            12.65     24.39     21.73    H    1 CRO1        0.0233
    103 H3            11.87     25.68     20.79    H    1 CRO1        0.0233
    104 H4            12.71     24.37     19.95    H    1 CRO1        0.0233
    105 H5            13.09     22.19     20.88    H    1 CRO1        0.0620
    106 H6             11.1     18.38     20.87    H    1 CRO1        0.0618
    107 H7            13.19     19.73     20.92    H    1 CRO1        0.0618
    108 H8             8.77     21.99     20.75    H    1 CRO1        0.0620
    109 H9             8.89     19.52     20.79    H    1 CRO1        0.0618
@<TRIPOS>BOND
     1    74    72    1
     2    75    72    1
     3    72    73    1
     4    72    67    1
     5    52    50    1
     6    54    50    1
     7    50    53    1
     8    50    44    1
     9    67    66    1
    10    67    68    1
    11    69    68    1
    12    51    44    1
    13    44    43    1
    14    44    46    1
    15    66    71    2
    16    66    63    1
    17    68    70    1
    18    48    46    1
    19    63    59    1
    20    61    56    1
    21    64    59    1
    22    38    33    1
    23    43    40    1
    24    43    45    2
    25    46    47    1
    26    46    49    1
    27    40    36    1
    28    59    56    1
    29    59    65    1
    30    42    36    1
    31    56    60    1
    32    56    55    1
    33    62    60    1
    34    39    37    1
    35    36    33    1
    36    36    41    1
    37    33    37    1
    38    33    32    1
    39    57    55    1
    40    27    12    1
    41    24    20    1
    42    31    55    1
    43    31    19    1
    44    55    58    1
    45    30    32    1
    46    30    13    1
    47    34    32    1
    48    32    35    1
    49    12    13   ar
    50    12    11   ar
    51    20    19   ar
    52    20    21   ar
    53    19    18   ar
    54    13    14   ar
    55    26    11    1
    56    11    10   ar
    57    25    21    1
    58    21    16   ar
    59    18    23    1
    60    18    17   ar
    61    14    28    1
    62    14    15   ar
    63    16    17   ar
    64    16     1    1
    65    10    15   ar
    66    10     1    1
    67    17    22    1
    68    15    29    1
    69     1     2    1
    70     1     6    1
    71     5     2    1
    72     8     6    1
    73     2     3    1
    74     2     4    1
    75     6     9    1
    76     6     7    1
    77    84    82    1
    78    87    83    1
    79    91    77    1
    80    77    76   ar
    81    77    78   ar
    82    82    76    1
    83    82    83    1
    84    86    83    1
    85    92    78    1
    86    76    81   ar
    87    78    79   ar
    88    83    85    1
    89    79    89    1
    90    79    80   ar
    91    81    80   ar
    92    81    88    1
    93    80    90    1
    94   101    99    1
    95   104   100    1
    96   108    94    1
    97    94    93   ar
    98    94    95   ar
    99    99    93    1
   100    99   100    1
   101   103   100    1
   102   109    95    1
   103    93    98   ar
   104    95    96   ar
   105   100   102    1
   106    96   106    1
   107    96    97   ar
   108    98    97   ar
   109    98   105    1
   110    97   107    1
   111    82    67    1
   112    99    68    1
