@<TRIPOS>MOLECULE
*****
  109   112     1     0     0
SMALL
gas


@<TRIPOS>ATOM
      1 C            3.5990     0.0570     4.3810 c3         1 VEA       0.014609
      2 C1           3.7080     1.3730     5.1970 c3         1 VEA      -0.051690
      3 H            4.6120     1.3790     5.8190 hc         1 VEA       0.024276
      4 H1           2.8550     1.5020     5.8740 hc         1 VEA       0.024276
      5 H2           3.7560     2.2570     4.5510 hc         1 VEA       0.024276
      6 C2           3.3950    -1.0760     5.4220 c3         1 VEA      -0.051690
      7 H3           4.1640    -1.0530     6.2040 hc         1 VEA       0.024276
      8 H4           3.4220    -2.0710     4.9620 hc         1 VEA       0.024276
      9 H5           2.4260    -0.9790     5.9280 hc         1 VEA       0.024276
     10 C3           4.9250    -0.0630     3.5910 ca         1 VEA      -0.037779
     11 C4           5.1680     0.7850     2.4940 ca         1 VEA      -0.055557
     12 C5           6.3780     0.7350     1.7920 ca         1 VEA      -0.031490
     13 C6           7.3830    -0.1530     2.1690 ca         1 VEA       0.075038
     14 C7           7.1580    -1.0070     3.2460 ca         1 VEA      -0.031490
     15 C8           5.9450    -0.9600     3.9480 ca         1 VEA      -0.055557
     16 C9           2.3630     0.0060     3.4490 ca         1 VEA      -0.037779
     17 C10          1.3430     0.9710     3.4810 ca         1 VEA      -0.055557
     18 C11          0.2030     0.8590     2.6700 ca         1 VEA      -0.031490
     19 C12          0.0500    -0.2240     1.8080 ca         1 VEA       0.075038
     20 C13          1.0630    -1.1790     1.7470 ca         1 VEA      -0.031490
     21 C14          2.2010    -1.0700     2.5550 ca         1 VEA      -0.055557
     22 H6           1.3980     1.8280     4.1470 ha         1 VEA       0.062694
     23 H7          -0.5490     1.6370     2.7510 ha         1 VEA       0.065055
     24 H8           0.9630    -2.0270     1.0750 ha         1 VEA       0.065055
     25 H9           2.9630    -1.8450     2.4850 ha         1 VEA       0.062694
     26 H10          4.4140     1.5020     2.1750 ha         1 VEA       0.062694
     27 H11          6.5360     1.4050     0.9510 ha         1 VEA       0.065055
     28 H12          7.9030    -1.7240     3.5740 ha         1 VEA       0.065055
     29 H13          5.8300    -1.6410     4.7870 ha         1 VEA       0.062694
     30 O            8.5220    -0.0940     1.4130 os         1 VEA      -0.343351
     31 O1          -1.0230    -0.4630     0.9900 os         1 VEA      -0.343351
     32 C15          9.6380    -0.8550     1.8730 c3         1 VEA       0.081544
     33 C16         10.8450    -0.5980     0.9680 c3         1 VEA       0.101764
     34 H14          9.4040    -1.9270     1.8460 h1         1 VEA       0.060081
     35 H15          9.8960    -0.5830     2.9050 h1         1 VEA       0.060081
     36 C17         11.2690     0.8750     0.9750 c3         1 VEA       0.084596
     37 O2          11.9410    -1.4130     1.4080 oh         1 VEA      -0.388274
     38 H16         10.6120    -0.8970    -0.0610 h1         1 VEA       0.065019
     39 H17         12.7110    -1.1360     0.8770 ho         1 VEA       0.210692
     40 O3          12.4190     1.0020     0.1130 os         1 VEA      -0.312982
     41 H18         11.5630     1.1790     1.9870 h1         1 VEA       0.060196
     42 H19         10.4600     1.5150     0.6070 h1         1 VEA       0.060196
     43 C18         12.8780     2.2790    -0.0200 c          1 VEA       0.263425
     44 C19         14.1030     2.3050    -0.9130 c3         1 VEA       0.039496
     45 O4          12.3870     3.2600     0.5170 o          1 VEA      -0.266333
     46 C20         15.3210     2.7080    -0.0910 c3         1 VEA      -0.053343
     47 H20         15.2070     3.7150     0.3270 hc         1 VEA       0.023845
     48 H21         16.2280     2.6960    -0.7050 hc         1 VEA       0.023845
     49 H22         15.4690     2.0190     0.7480 hc         1 VEA       0.023845
     50 C21         13.8720     3.2590    -2.0790 c3         1 VEA      -0.053343
     51 H23         14.2710     1.3000    -1.3190 hc         1 VEA       0.040359
     52 H24         14.7310     3.2590    -2.7580 hc         1 VEA       0.023845
     53 H25         13.7120     4.2860    -1.7330 hc         1 VEA       0.023845
     54 H26         12.9860     2.9630    -2.6520 hc         1 VEA       0.023845
     55 C22         -2.1230     0.4500     1.0870 c3         1 VEA       0.081544
     56 C23         -3.2750    -0.0290     0.1860 c3         1 VEA       0.101764
     57 H27         -1.7850     1.4390     0.7550 h1         1 VEA       0.060081
     58 H28         -2.4750     0.4950     2.1250 h1         1 VEA       0.060081
     59 C24         -4.2900     1.1010    -0.0100 c3         1 VEA       0.084607
     60 O5          -3.9340    -1.1450     0.8030 oh         1 VEA      -0.388274
     61 H29         -2.8940    -0.3810    -0.7790 h1         1 VEA       0.065019
     62 H30         -4.7050    -1.3590     0.2480 ho         1 VEA       0.210692
     63 O6          -5.3370     0.6780    -0.9090 os         1 VEA      -0.312733
     64 H31         -3.7790     1.9780    -0.4250 h1         1 VEA       0.060196
     65 H32         -4.7550     1.3560     0.9500 h1         1 VEA       0.060196
     66 C25         -6.1510     1.7020    -1.2900 c          1 VEA       0.267468
     67 C26         -7.3280     1.2660    -2.2040 c3         1 VEA       0.060686
     68 C27         -8.3500     0.5940    -1.2200 c3         1 VEA      -0.031183
     69 H34         -8.5010     1.3340    -0.4160 hc         1 VEA       0.028393
     70 H35         -7.8120    -0.2090    -0.7080 hc         1 VEA       0.028393
     71 O7          -6.0020     2.8500    -0.8790 o          1 VEA      -0.265963
     72 C28         -7.8800     2.6230    -2.7450 c3         1 VEA      -0.049572
     73 H37         -8.3880     3.1920    -1.9570 hc         1 VEA       0.024166
     74 H38         -8.5760     2.4980    -3.5780 hc         1 VEA       0.024166
     75 H39         -7.0740     3.2620    -3.1260 hc         1 VEA       0.024166
     76 C29         -6.9360    -1.0910    -3.4100 ca         1 CRO      -0.044109
     77 C31         -7.8620    -1.7590    -4.2320 ca         1 CRO      -0.058740
     78 C33         -7.9170    -3.1530    -4.2800 ca         1 CRO      -0.061987
     79 C35         -7.0420    -3.9080    -3.5080 ca         1 CRO      -0.062252
     80 C37         -6.1090    -3.2670    -2.6980 ca         1 CRO      -0.061987
     81 C39         -6.0510    -1.8700    -2.6570 ca         1 CRO      -0.058740
     82 C41         -6.8750     0.4300    -3.4580 c3         1 CRO      -0.004225
     83 C43         -5.5180     0.8740    -4.0430 c3         1 CRO      -0.057362
     84 H33         -7.5920     0.6980    -4.2480 hc         1 CRO       0.036053
     85 H40         -4.6750     0.5900    -3.4060 hc         1 CRO       0.023692
     86 H42         -5.4790     1.9580    -4.1910 hc         1 CRO       0.023692
     87 H44         -5.3500     0.4060    -5.0200 hc         1 CRO       0.023692
     88 H46         -5.2810    -1.4110    -2.0490 ha         1 CRO       0.062576
     89 H48         -7.0890    -4.9920    -3.5380 ha         1 CRO       0.062273
     90 H50         -5.4160    -3.8570    -2.1040 ha         1 CRO       0.062283
     91 H52         -8.5610    -1.1970    -4.8500 ha         1 CRO       0.062576
     92 H54         -8.6510    -3.6450    -4.9120 ha         1 CRO       0.062283
     93 C30        -10.0500    -1.3930    -1.6550 ca         1 CRO      -0.045156
     94 C32        -11.0380    -1.9460    -2.4920 ca         1 CRO      -0.058776
     95 C34        -11.3350    -3.3150    -2.4790 ca         1 CRO      -0.061988
     96 C36        -10.6470    -4.1710    -1.6290 ca         1 CRO      -0.062252
     97 C38         -9.6750    -3.6540    -0.7810 ca         1 CRO      -0.061988
     98 C40         -9.3960    -2.2820    -0.7810 ca         1 CRO      -0.058776
     99 C42         -9.8030     0.1230    -1.5750 c3         1 CRO      -0.017981
    100 C44        -10.4690     0.9350    -2.6890 c3         1 CRO      -0.058380
    101 H36        -10.3890     0.3850    -0.6780 hc         1 CRO       0.034974
    102 H41        -10.0360     0.7100    -3.6690 hc         1 CRO       0.023657
    103 H43        -10.3970     2.0070    -2.4900 hc         1 CRO       0.023657
    104 H45        -11.5450     0.7380    -2.7480 hc         1 CRO       0.023657
    105 H47         -8.6580    -1.9330    -0.0660 ha         1 CRO       0.062575
    106 H49        -10.8730    -5.2330    -1.6190 ha         1 CRO       0.062273
    107 H51         -9.1350    -4.3140    -0.1080 ha         1 CRO       0.062283
    108 H53        -11.6200    -1.3290    -3.1690 ha         1 CRO       0.062575
    109 H55        -12.1130    -3.7060    -3.1290 ha         1 CRO       0.062283
@<TRIPOS>BOND
     1    74    72 1   
     2    75    72 1   
     3    72    73 1   
     4    72    67 1   
     5    52    50 1   
     6    54    50 1   
     7    50    53 1   
     8    50    44 1   
     9    67    66 1   
    10    67    68 1   
    11    69    68 1   
    12    51    44 1   
    13    44    43 1   
    14    44    46 1   
    15    66    71 2   
    16    66    63 1   
    17    68    70 1   
    18    48    46 1   
    19    63    59 1   
    20    61    56 1   
    21    64    59 1   
    22    38    33 1   
    23    43    40 1   
    24    43    45 2   
    25    46    47 1   
    26    46    49 1   
    27    40    36 1   
    28    59    56 1   
    29    59    65 1   
    30    42    36 1   
    31    56    60 1   
    32    56    55 1   
    33    62    60 1   
    34    39    37 1   
    35    36    33 1   
    36    36    41 1   
    37    33    37 1   
    38    33    32 1   
    39    57    55 1   
    40    27    12 1   
    41    24    20 1   
    42    31    55 1   
    43    31    19 1   
    44    55    58 1   
    45    30    32 1   
    46    30    13 1   
    47    34    32 1   
    48    32    35 1   
    49    12    13 ar  
    50    12    11 ar  
    51    20    19 ar  
    52    20    21 ar  
    53    19    18 ar  
    54    13    14 ar  
    55    26    11 1   
    56    11    10 ar  
    57    25    21 1   
    58    21    16 ar  
    59    18    23 1   
    60    18    17 ar  
    61    14    28 1   
    62    14    15 ar  
    63    16    17 ar  
    64    16     1 1   
    65    10    15 ar  
    66    10     1 1   
    67    17    22 1   
    68    15    29 1   
    69     1     2 1   
    70     1     6 1   
    71     5     2 1   
    72     8     6 1   
    73     2     3 1   
    74     2     4 1   
    75     6     9 1   
    76     6     7 1   
    77    84    82 1   
    78    87    83 1   
    79    91    77 1   
    80    77    76 ar  
    81    77    78 ar  
    82    82    76 1   
    83    82    83 1   
    84    86    83 1   
    85    92    78 1   
    86    76    81 ar  
    87    78    79 ar  
    88    83    85 1   
    89    79    89 1   
    90    79    80 ar  
    91    81    80 ar  
    92    81    88 1   
    93    80    90 1   
    94   101    99 1   
    95   104   100 1   
    96   108    94 1   
    97    94    93 ar  
    98    94    95 ar  
    99    99    93 1   
   100    99   100 1   
   101   103   100 1   
   102   109    95 1   
   103    93    98 ar  
   104    95    96 ar  
   105   100   102 1   
   106    96   106 1   
   107    96    97 ar  
   108    98    97 ar  
   109    98   105 1   
   110    97   107 1   
   111    82    67 1   
   112    99    68 1   
@<TRIPOS>SUBSTRUCTURE
     1 VEA         1 TEMP              0 ****  ****    0 ROOT
