@<TRIPOS>MOLECULE
*****
 109 112 0 0 0
SMALL
GASTEIGER

@<TRIPOS>ATOM
      1 C           3.5990    0.0571    4.3808 C.3     1  VEA1        0.0151
      2 C1          3.7078    1.3728    5.1967 C.3     1  VEA1       -0.0517
      3 H           4.6120    1.3789    5.8188 H       1  VEA1        0.0241
      4 H1          2.8551    1.5024    5.8738 H       1  VEA1        0.0241
      5 H2          3.7561    2.2574    4.5505 H       1  VEA1        0.0241
      6 C2          3.3954   -1.0759    5.4224 C.3     1  VEA1       -0.0517
      7 H3          4.1643   -1.0530    6.2039 H       1  VEA1        0.0241
      8 H4          3.4220   -2.0707    4.9619 H       1  VEA1        0.0241
      9 H5          2.4260   -0.9793    5.9277 H       1  VEA1        0.0241
     10 C3          4.9248   -0.0628    3.5908 C.ar    1  VEA1       -0.0372
     11 C4          5.1684    0.7854    2.4944 C.ar    1  VEA1       -0.0543
     12 C5          6.3778    0.7352    1.7924 C.ar    1  VEA1       -0.0197
     13 C6          7.3832   -0.1533    2.1691 C.ar    1  VEA1        0.1206
     14 C7          7.1579   -1.0066    3.2460 C.ar    1  VEA1       -0.0197
     15 C8          5.9447   -0.9603    3.9483 C.ar    1  VEA1       -0.0543
     16 C9          2.3629    0.0059    3.4489 C.ar    1  VEA1       -0.0372
     17 C10         1.3431    0.9711    3.4814 C.ar    1  VEA1       -0.0543
     18 C11         0.2028    0.8594    2.6702 C.ar    1  VEA1       -0.0197
     19 C12         0.0500   -0.2237    1.8075 C.ar    1  VEA1        0.1206
     20 C13         1.0629   -1.1791    1.7471 C.ar    1  VEA1       -0.0197
     21 C14         2.2013   -1.0696    2.5551 C.ar    1  VEA1       -0.0543
     22 H6          1.3984    1.8280    4.1474 H       1  VEA1        0.0622
     23 H7         -0.5494    1.6368    2.7513 H       1  VEA1        0.0654
     24 H8          0.9631   -2.0274    1.0745 H       1  VEA1        0.0654
     25 H9          2.9626   -1.8445    2.4847 H       1  VEA1        0.0622
     26 H10         4.4136    1.5020    2.1753 H       1  VEA1        0.0622
     27 H11         6.5358    1.4047    0.9506 H       1  VEA1        0.0654
     28 H12         7.9034   -1.7240    3.5735 H       1  VEA1        0.0654
     29 H13         5.8297   -1.6411    4.7874 H       1  VEA1        0.0622
     30 O           8.5219   -0.0942    1.4132 O.3     1  VEA1       -0.4893
     31 O1         -1.0231   -0.4625    0.9903 O.3     1  VEA1       -0.4893
     32 C15         9.6383   -0.8552    1.8730 C.3     1  VEA1        0.1186
     33 C16        10.8451   -0.5978    0.9677 C.3     1  VEA1        0.1230
     34 H14         9.4043   -1.9271    1.8462 H       1  VEA1        0.0724
     35 H15         9.8955   -0.5834    2.9053 H       1  VEA1        0.0724
     36 C17        11.2691    0.8747    0.9753 C.3     1  VEA1        0.1215
     37 O2         11.9411   -1.4130    1.4078 O.3     1  VEA1       -0.3850
     38 H16        10.6123   -0.8971   -0.0611 H       1  VEA1        0.0662
     39 H17        12.7112   -1.1359    0.8768 H       1  VEA1        0.2101
     40 O3         12.4189    1.0020    0.1128 O.3     1  VEA1       -0.4617
     41 H18        11.5631    1.1786    1.9868 H       1  VEA1        0.0725
     42 H19        10.4601    1.5148    0.6065 H       1  VEA1        0.0725
     43 C18        12.8783    2.2788   -0.0196 C.2     1  VEA1        0.3097
     44 C19        14.1033    2.3055   -0.9131 C.3     1  VEA1        0.0508
     45 O4         12.3866    3.2599    0.5167 O.2     1  VEA1       -0.2506
     46 C20        15.3212    2.7084   -0.0908 C.3     1  VEA1       -0.0525
     47 H20        15.2073    3.7149    0.3270 H       1  VEA1        0.0237
     48 H21        16.2278    2.6956   -0.7045 H       1  VEA1        0.0237
     49 H22        15.4687    2.0194    0.7481 H       1  VEA1        0.0237
     50 C21        13.8717    3.2588   -2.0792 C.3     1  VEA1       -0.0525
     51 H23        14.2707    1.3002   -1.3190 H       1  VEA1        0.0408
     52 H24        14.7309    3.2589   -2.7581 H       1  VEA1        0.0237
     53 H25        13.7123    4.2860   -1.7330 H       1  VEA1        0.0237
     54 H26        12.9859    2.9632   -2.6519 H       1  VEA1        0.0237
     55 C22        -2.1232    0.4502    1.0868 C.3     1  VEA1        0.1186
     56 C23        -3.2747   -0.0288    0.1857 C.3     1  VEA1        0.1230
     57 H27        -1.7848    1.4391    0.7549 H       1  VEA1        0.0724
     58 H28        -2.4751    0.4946    2.1250 H       1  VEA1        0.0724
     59 C24        -4.2898    1.1006   -0.0099 C.3     1  VEA1        0.1215
     60 O5         -3.9344   -1.1449    0.8027 O.3     1  VEA1       -0.3850
     61 H29        -2.8944   -0.3813   -0.7795 H       1  VEA1        0.0662
     62 H30        -4.7053   -1.3589    0.2477 H       1  VEA1        0.2101
     63 O6         -5.3373    0.6778   -0.9095 O.3     1  VEA1       -0.4617
     64 H31        -3.7789    1.9777   -0.4251 H       1  VEA1        0.0725
     65 H32        -4.7547    1.3558    0.9502 H       1  VEA1        0.0725
     66 C25        -6.1514    1.7019   -1.2901 C.2     1  VEA1        0.3097
     67 C26        -7.3283    1.2663   -2.2035 C.3     1  VEA1        0.0508
     68 C27        -8.3498    0.5936   -1.2201 C.3     1  VEA1       -0.0525
     69 H34        -8.5009    1.3338   -0.4160 H       1  VEA1        0.0237
     70 H35        -7.8118   -0.2090   -0.7080 H       1  VEA1        0.0237
     71 O7         -6.0016    2.8496   -0.8792 O.2     1  VEA1       -0.2506
     72 C28        -7.8802    2.6230   -2.7449 C.3     1  VEA1       -0.0525
     73 H37        -8.3883    3.1917   -1.9572 H       1  VEA1        0.0237
     74 H38        -8.5764    2.4981   -3.5775 H       1  VEA1        0.0237
     75 H39        -7.0742    3.2623   -3.1263 H       1  VEA1        0.0237
     76 C          -6.9361   -1.0905   -3.4103 C.ar    1  CRO01      -0.0476
     77 C1         -7.8625   -1.7586   -4.2325 C.ar    1  CRO01      -0.0586
     78 C2         -7.9167   -3.1527   -4.2800 C.ar    1  CRO01      -0.0615
     79 C3         -7.0419   -3.9078   -3.5079 C.ar    1  CRO01      -0.0617
     80 C4         -6.1085   -3.2671   -2.6980 C.ar    1  CRO01      -0.0615
     81 C5         -6.0507   -1.8702   -2.6570 C.ar    1  CRO01      -0.0586
     82 C6         -6.8755    0.4300   -3.4580 C.3     1  CRO01      -0.0305
     83 C7         -5.5182    0.8743   -4.0427 C.3     1  CRO01      -0.0613
     84 H1         -7.5920    0.6979   -4.2483 H       1  CRO01       0.0311
     85 H2         -4.6746    0.5898   -3.4060 H       1  CRO01       0.0233
     86 H3         -5.4795    1.9575   -4.1912 H       1  CRO01       0.0233
     87 H4         -5.3497    0.4063   -5.0201 H       1  CRO01       0.0233
     88 H5         -5.2811   -1.4114   -2.0494 H       1  CRO01       0.0620
     89 H6         -7.0891   -4.9925   -3.5378 H       1  CRO01       0.0618
     90 H7         -5.4156   -3.8571   -2.1039 H       1  CRO01       0.0618
     91 H8         -8.5608   -1.1973   -4.8497 H       1  CRO01       0.0620
     92 H9         -8.6512   -3.6449   -4.9115 H       1  CRO01       0.0618
     93 C         -10.0495   -1.3933   -1.6546 C.ar    1  CRO11      -0.0476
     94 C1        -11.0380   -1.9462   -2.4922 C.ar    1  CRO11      -0.0586
     95 C2        -11.3349   -3.3147   -2.4786 C.ar    1  CRO11      -0.0615
     96 C3        -10.6472   -4.1709   -1.6286 C.ar    1  CRO11      -0.0617
     97 C4         -9.6755   -3.6541   -0.7813 C.ar    1  CRO11      -0.0615
     98 C5         -9.3956   -2.2822   -0.7815 C.ar    1  CRO11      -0.0586
     99 C6         -9.8031    0.1228   -1.5752 C.3     1  CRO11      -0.0305
    100 C7        -10.4687    0.9347   -2.6895 C.3     1  CRO11      -0.0613
    101 H1        -10.3890    0.3847   -0.6782 H       1  CRO11       0.0311
    102 H2        -10.0359    0.7102   -3.6689 H       1  CRO11       0.0233
    103 H3        -10.3967    2.0066   -2.4897 H       1  CRO11       0.0233
    104 H4        -11.5448    0.7382   -2.7480 H       1  CRO11       0.0233
    105 H5         -8.6578   -1.9326   -0.0663 H       1  CRO11       0.0620
    106 H6        -10.8735   -5.2330   -1.6187 H       1  CRO11       0.0618
    107 H7         -9.1351   -4.3143   -0.1082 H       1  CRO11       0.0618
    108 H8        -11.6205   -1.3285   -3.1687 H       1  CRO11       0.0620
    109 H9        -12.1126   -3.7058   -3.1293 H       1  CRO11       0.0618
@<TRIPOS>BOND
     1    74    72    1
     2    75    72    1
     3    72    73    1
     4    72    67    1
     5    52    50    1
     6    54    50    1
     7    50    53    1
     8    50    44    1
     9    67    66    1
    10    67    68    1
    11    69    68    1
    12    51    44    1
    13    44    43    1
    14    44    46    1
    15    66    71    2
    16    66    63    1
    17    68    70    1
    18    48    46    1
    19    63    59    1
    20    61    56    1
    21    64    59    1
    22    38    33    1
    23    43    40    1
    24    43    45    2
    25    46    47    1
    26    46    49    1
    27    40    36    1
    28    59    56    1
    29    59    65    1
    30    42    36    1
    31    56    60    1
    32    56    55    1
    33    62    60    1
    34    39    37    1
    35    36    33    1
    36    36    41    1
    37    33    37    1
    38    33    32    1
    39    57    55    1
    40    27    12    1
    41    24    20    1
    42    31    55    1
    43    31    19    1
    44    55    58    1
    45    30    32    1
    46    30    13    1
    47    34    32    1
    48    32    35    1
    49    12    13   ar
    50    12    11   ar
    51    20    19   ar
    52    20    21   ar
    53    19    18   ar
    54    13    14   ar
    55    26    11    1
    56    11    10   ar
    57    25    21    1
    58    21    16   ar
    59    18    23    1
    60    18    17   ar
    61    14    28    1
    62    14    15   ar
    63    16    17   ar
    64    16     1    1
    65    10    15   ar
    66    10     1    1
    67    17    22    1
    68    15    29    1
    69     1     2    1
    70     1     6    1
    71     5     2    1
    72     8     6    1
    73     2     3    1
    74     2     4    1
    75     6     9    1
    76     6     7    1
    77    84    82    1
    78    87    83    1
    79    91    77    1
    80    77    76   ar
    81    77    78   ar
    82    82    76    1
    83    82    83    1
    84    86    83    1
    85    92    78    1
    86    76    81   ar
    87    78    79   ar
    88    83    85    1
    89    79    89    1
    90    79    80   ar
    91    81    80   ar
    92    81    88    1
    93    80    90    1
    94   101    99    1
    95   104   100    1
    96   108    94    1
    97    94    93   ar
    98    94    95   ar
    99    99    93    1
   100    99   100    1
   101   103   100    1
   102   109    95    1
   103    93    98   ar
   104    95    96   ar
   105   100   102    1
   106    96   106    1
   107    96    97   ar
   108    98    97   ar
   109    98   105    1
   110    97   107    1
   111    82    67    1
   112    99    68    1
