@<TRIPOS>MOLECULE
*****
 134 138 0 0 0
SMALL
GASTEIGER

@<TRIPOS>ATOM
      1 C          -9.5688    1.2917    2.4987 C.3     1  VEB1        0.0151
      2 C1         -9.7728    2.8266    2.6349 C.3     1  VEB1       -0.0517
      3 H          -8.9284    3.3084    3.1418 H       1  VEB1        0.0241
      4 H1        -10.6677    3.0564    3.2274 H       1  VEB1        0.0241
      5 H2         -9.8939    3.3147    1.6604 H       1  VEB1        0.0241
      6 C2         -9.1946    0.7859    3.9183 C.3     1  VEB1       -0.0517
      7 H3         -8.2311    1.1969    4.2456 H       1  VEB1        0.0241
      8 H4         -9.1055   -0.3066    3.9555 H       1  VEB1        0.0241
      9 H5         -9.9387    1.0866    4.6656 H       1  VEB1        0.0241
     10 C3         -8.3700    0.9114    1.5960 C.ar    1  VEB1       -0.0372
     11 C4         -7.3644    1.8340    1.2565 C.ar    1  VEB1       -0.0543
     12 C5         -6.2122    1.4408    0.5613 C.ar    1  VEB1       -0.0197
     13 C6         -6.0310    0.1104    0.1943 C.ar    1  VEB1        0.1206
     14 C7         -7.0409   -0.8094    0.4703 C.ar    1  VEB1       -0.0197
     15 C8         -8.1904   -0.4185    1.1716 C.ar    1  VEB1       -0.0543
     16 C9        -10.9210    0.7354    1.9871 C.ar    1  VEB1       -0.0372
     17 C10       -11.3829    1.0743    0.6984 C.ar    1  VEB1       -0.0543
     18 C11       -12.6614    0.7037    0.2631 C.ar    1  VEB1       -0.0197
     19 C12       -13.5052   -0.0025    1.1125 C.ar    1  VEB1        0.1206
     20 C13       -13.0440   -0.4206    2.3563 C.ar    1  VEB1       -0.0197
     21 C14       -11.7686   -0.0470    2.7927 C.ar    1  VEB1       -0.0543
     22 H6        -10.7534    1.6551    0.0264 H       1  VEB1        0.0622
     23 H7        -13.0029    0.9911   -0.7271 H       1  VEB1        0.0654
     24 H8        -13.6708   -1.0314    2.9998 H       1  VEB1        0.0654
     25 H9        -11.4710   -0.3695    3.7865 H       1  VEB1        0.0622
     26 H10        -7.4361    2.8787    1.5467 H       1  VEB1        0.0622
     27 H11        -5.4726    2.1993    0.3280 H       1  VEB1        0.0654
     28 H12        -6.9255   -1.8477    0.1700 H       1  VEB1        0.0654
     29 H13        -8.9371   -1.1757    1.4059 H       1  VEB1        0.0622
     30 O          -4.9215   -0.3808   -0.4444 O.3     1  VEB1       -0.4893
     31 O1        -14.7679   -0.3032    0.6729 O.3     1  VEB1       -0.4893
     32 C15        -3.6943    0.3072   -0.1427 C.3     1  VEB1        0.1186
     33 C16        -2.5132   -0.5679   -0.5907 C.3     1  VEB1        0.1229
     34 H14        -3.6249    0.4778    0.9397 H       1  VEB1        0.0724
     35 H15        -3.6673    1.2617   -0.6802 H       1  VEB1        0.0724
     36 C17        -1.1762    0.1106   -0.2485 C.3     1  VEB1        0.1186
     37 O2         -2.5925   -1.8291    0.0945 O.3     1  VEB1       -0.3850
     38 H16        -2.5771   -0.7894   -1.6618 H       1  VEB1        0.0661
     39 H17        -3.4952   -2.1640   -0.0644 H       1  VEB1        0.2101
     40 C18       -15.7670    0.3151    1.5066 C.3     1  VEB1        0.1186
     41 C19       -17.1667   -0.0475    0.9938 C.3     1  VEB1        0.1230
     42 H18       -15.6280    1.4031    1.4703 H       1  VEB1        0.0724
     43 H19       -15.6701   -0.0333    2.5417 H       1  VEB1        0.0724
     44 C20       -18.2279    0.8246    1.6723 C.3     1  VEB1        0.1215
     45 O3        -17.4441   -1.4245    1.2973 O.3     1  VEB1       -0.3850
     46 H20       -17.2204    0.0502   -0.0963 H       1  VEB1        0.0662
     47 H21       -18.3500   -1.5955    0.9814 H       1  VEB1        0.2101
     48 O4        -19.5266    0.4456    1.1772 O.3     1  VEB1       -0.4617
     49 H22       -18.0464    1.8826    1.4504 H       1  VEB1        0.0725
     50 H23       -18.2110    0.6590    2.7565 H       1  VEB1        0.0725
     51 C21       -20.5491    1.1739    1.7114 C.2     1  VEB1        0.3097
     52 C22       -21.8850    0.6714    1.2018 C.3     1  VEB1        0.0508
     53 C23       -22.6373   -0.0072    2.3405 C.3     1  VEB1       -0.0525
     54 H24       -22.0495   -0.8318    2.7582 H       1  VEB1        0.0237
     55 H25       -23.5920   -0.4131    1.9905 H       1  VEB1        0.0237
     56 H26       -22.8450    0.6939    3.1568 H       1  VEB1        0.0237
     57 O5        -20.4097    2.0924    2.5078 O.2     1  VEB1       -0.2506
     58 C24       -22.6849    1.8294    0.6158 C.3     1  VEB1       -0.0525
     59 H27       -21.7095   -0.0624    0.4058 H       1  VEB1        0.0408
     60 H28       -22.1261    2.3191   -0.1890 H       1  VEB1        0.0237
     61 H29       -22.9055    2.5897    1.3734 H       1  VEB1        0.0237
     62 H30       -23.6359    1.4761    0.2037 H       1  VEB1        0.0237
     63 H31         5.8522   -1.7313    3.1238 H       1  VEB1        0.0241
     64 H32         4.1072   -1.7697    2.9327 H       1  VEB1        0.0241
     65 C25         5.0505   -1.6851    2.3781 C.3     1  VEB1       -0.0517
     66 H33         4.4654    0.7989    3.3011 H       1  VEB1        0.0241
     67 H34         5.1447   -2.5772    1.7475 H       1  VEB1        0.0241
     68 H35         6.2139    0.6809    3.1243 H       1  VEB1        0.0241
     69 C26         5.2764    0.7822    2.5630 C.3     1  VEB1       -0.0517
     70 H36         7.6471   -1.4623    1.9336 H       1  VEB1        0.0622
     71 C27         5.0968   -0.3725    1.5421 C.3     1  VEB1        0.0151
     72 C28         7.5619   -0.9008    1.0072 C.ar    1  VEB1       -0.0543
     73 H37         3.0439    1.5844    1.6237 H       1  VEB1        0.0622
     74 H38         5.3078    1.7611    2.0694 H       1  VEB1        0.0241
     75 C29         3.7422   -0.3025    0.7870 C.ar    1  VEB1       -0.0372
     76 C30         2.8122    0.7327    0.9901 C.ar    1  VEB1       -0.0543
     77 C31         6.3408   -0.3119    0.6214 C.ar    1  VEB1       -0.0372
     78 H39         9.6234   -1.2838    0.5462 H       1  VEB1        0.0654
     79 C32         8.7175   -0.7775    0.2266 C.ar    1  VEB1       -0.0197
     80 C33         3.3620   -1.3400   -0.0861 C.ar    1  VEB1       -0.0543
     81 C34         1.5327    0.6937    0.4156 C.ar    1  VEB1       -0.0197
     82 H40         4.0514   -2.1527   -0.3078 H       1  VEB1        0.0622
     83 H41         0.8558    1.5168    0.6187 H       1  VEB1        0.0654
     84 C35         2.0816   -1.3797   -0.6555 C.ar    1  VEB1       -0.0197
     85 C36         1.1462   -0.3865   -0.3726 C.ar    1  VEB1        0.1206
     86 C37         6.3323    0.4108   -0.5856 C.ar    1  VEB1       -0.0543
     87 H42        10.7688    1.6811   -0.9064 H       1  VEB1        0.0724
     88 C38         8.6897   -0.0358   -0.9484 C.ar    1  VEB1        0.1206
     89 H43         1.8031   -2.2145   -1.2940 H       1  VEB1        0.0654
     90 O6         -0.0992   -0.5672   -0.9149 O.3     1  VEB1       -0.4893
     91 H44         5.4234    0.8963   -0.9356 H       1  VEB1        0.0622
     92 H45        11.1432    0.0960   -0.1686 H       1  VEB1        0.0724
     93 C39        10.9430    0.6179   -1.1105 C.3     1  VEB1        0.1186
     94 C40         7.4900    0.5314   -1.3692 C.ar    1  VEB1       -0.0197
     95 O7          9.7761    0.0942   -1.7708 O.3     1  VEB1       -0.4893
     96 O8         12.5230   -0.9438   -2.0813 O.3     1  VEB1       -0.3850
     97 H46        13.6512    0.8932   -0.5284 H       1  VEB1        0.0725
     98 C41        12.1574    0.4468   -2.0345 C.3     1  VEB1        0.1230
     99 H47         7.4513    1.0806   -2.3059 H       1  VEB1        0.0654
    100 H48        13.3311   -0.9937   -2.6231 H       1  VEB1        0.2101
    101 C42        13.3619    1.2455   -1.5260 C.3     1  VEB1        0.1215
    102 H49        11.9078    0.7367   -3.0613 H       1  VEB1        0.0662
    103 H50        13.1273    2.3154   -1.4960 H       1  VEB1        0.0725
    104 O9         14.4667    1.0207   -2.4266 O.3     1  VEB1       -0.4617
    105 O10        15.7336    2.3863   -1.0877 O.2     1  VEB1       -0.2506
    106 C43        15.6238    1.6445   -2.0551 C.2     1  VEB1        0.3097
    107 C44        17.2605   -0.1548   -2.6152 C.3     1  VEB1       -0.0525
    108 H52        16.5059   -0.6447   -1.9845 H       1  VEB1        0.0237
    109 C45        16.7546    1.2515   -2.9955 C.3     1  VEB1        0.0508
    110 H53        16.3364    1.2593   -4.0101 H       1  VEB1        0.0408
    111 H54        18.1563   -0.0856   -1.9833 H       1  VEB1        0.0237
    112 C46        17.8608    2.3049   -2.9470 C.3     1  VEB1       -0.0525
    113 H55        18.3202    2.3594   -1.9540 H       1  VEB1        0.0237
    114 H56        17.4579    3.2979   -3.1763 H       1  VEB1        0.0237
    115 H57        18.6502    2.0922   -3.6724 H       1  VEB1        0.0237
    116 H58        -1.0359    0.0731    0.8396 H       1  VEB1        0.0724
    117 H59        -1.1868    1.1517   -0.5912 H       1  VEB1        0.0724
    118 C          17.4616   -2.5225   -3.4185 C.ar    1  CRO01      -0.0476
    119 C1         16.2118   -3.1653   -3.4612 C.ar    1  CRO01      -0.0586
    120 C2         16.0739   -4.4949   -3.0612 C.ar    1  CRO01      -0.0615
    121 C3         17.1843   -5.2044   -2.6139 C.ar    1  CRO01      -0.0617
    122 C4         18.4293   -4.5814   -2.5597 C.ar    1  CRO01      -0.0615
    123 C5         18.5672   -3.2468   -2.9517 C.ar    1  CRO01      -0.0586
    124 C6         17.5456   -1.0599   -3.8366 C.3     1  CRO01      -0.0305
    125 C7         18.8653   -0.7024   -4.5292 C.3     1  CRO01      -0.0613
    126 H1         16.7561   -0.9045   -4.5849 H       1  CRO01       0.0311
    127 H2         19.7025   -0.6693   -3.8233 H       1  CRO01       0.0233
    128 H3         18.7991    0.2773   -5.0111 H       1  CRO01       0.0233
    129 H4         19.1120   -1.4308   -5.3100 H       1  CRO01       0.0233
    130 H5         19.5497   -2.7874   -2.8831 H       1  CRO01       0.0620
    131 H6         17.0787   -6.2405   -2.3039 H       1  CRO01       0.0618
    132 H7         19.2958   -5.1349   -2.2069 H       1  CRO01       0.0618
    133 H8         15.3299   -2.6291   -3.8045 H       1  CRO01       0.0620
    134 H9         15.0989   -4.9740   -3.0970 H       1  CRO01       0.0618
@<TRIPOS>BOND
     1   114   112    1
     2   115   112    1
     3   112   113    1
     4   112   109    1
     5   110   109    1
     6   102    98    1
     7   109   106    1
     8   109   107    1
     9   100    96    1
    10    99    94    1
    11   111   107    1
    12   104   106    1
    13   104   101    1
    14    96    98    1
    15    98   101    1
    16    98    93    1
    17   106   105    2
    18   107   108    1
    19    95    93    1
    20    95    88    1
    21   103   101    1
    22    38    33    1
    23    94    88   ar
    24    94    86   ar
    25   101    97    1
    26    89    84    1
    27    91    86    1
    28    93    87    1
    29    93    92    1
    30    88    79   ar
    31    90    85    1
    32    90    36    1
    33    23    18    1
    34    84    85   ar
    35    84    80   ar
    36    86    77   ar
    37    35    32    1
    38    33    36    1
    39    33    32    1
    40    33    37    1
    41    85    81   ar
    42    82    80    1
    43   117    36    1
    44    30    32    1
    45    30    13    1
    46    80    75   ar
    47    36   116    1
    48    60    58    1
    49    46    41    1
    50    32    34    1
    51    22    17    1
    52    39    37    1
    53    18    17   ar
    54    18    19   ar
    55    13    12   ar
    56    13    14   ar
    57    27    12    1
    58    62    58    1
    59    81    83    1
    60    81    76   ar
    61    28    14    1
    62    79    78    1
    63    79    72   ar
    64    77    72   ar
    65    77    71    1
    66    12    11   ar
    67    14    15   ar
    68    59    52    1
    69    75    76   ar
    70    75    71    1
    71    17    16   ar
    72    58    52    1
    73    58    61    1
    74    31    19    1
    75    31    40    1
    76    76    73    1
    77    41    45    1
    78    41    40    1
    79    41    44    1
    80    19    20   ar
    81    72    70    1
    82    47    45    1
    83    11    26    1
    84    11    10   ar
    85    15    29    1
    86    15    10   ar
    87    48    44    1
    88    48    51    1
    89    52    51    1
    90    52    53    1
    91    71    65    1
    92    71    69    1
    93    67    65    1
    94    49    44    1
    95     5     2    1
    96    10     1    1
    97    40    42    1
    98    40    43    1
    99    44    50    1
   100    51    57    2
   101    16     1    1
   102    16    21   ar
   103    74    69    1
   104    65    64    1
   105    65    63    1
   106    55    53    1
   107    20    21   ar
   108    20    24    1
   109     1     2    1
   110     1     6    1
   111    53    54    1
   112    53    56    1
   113    69    68    1
   114    69    66    1
   115     2     3    1
   116     2     4    1
   117    21    25    1
   118     6     8    1
   119     6     7    1
   120     6     9    1
   121   126   124    1
   122   129   125    1
   123   133   119    1
   124   119   118   ar
   125   119   120   ar
   126   124   118    1
   127   124   125    1
   128   128   125    1
   129   134   120    1
   130   118   123   ar
   131   120   121   ar
   132   125   127    1
   133   121   131    1
   134   121   122   ar
   135   123   122   ar
   136   123   130    1
   137   122   132    1
   138   124   107    1
