@<TRIPOS>MOLECULE
*****
  134   138     1     0     0
SMALL
gas


@<TRIPOS>ATOM
      1 C           -4.8910     1.2090     2.0300 c3         1 VEB       0.014609
      2 C1          -5.1230     2.7430     2.1320 c3         1 VEB      -0.051690
      3 H           -4.2990     3.2490     2.6500 hc         1 VEB       0.024276
      4 H1          -6.0340     2.9700     2.7000 hc         1 VEB       0.024276
      5 H2          -5.2270     3.2100     1.1450 hc         1 VEB       0.024276
      6 C2          -4.5190     0.7390     3.4640 c3         1 VEB      -0.051690
      7 H3          -3.5680     1.1770     3.7930 hc         1 VEB       0.024276
      8 H4          -4.4070    -0.3500     3.5220 hc         1 VEB       0.024276
      9 H5          -5.2760     1.0390     4.1990 hc         1 VEB       0.024276
     10 C3          -3.6680     0.8370     1.1530 ca         1 VEB      -0.037779
     11 C4          -2.6430     1.7590     0.8710 ca         1 VEB      -0.055557
     12 C5          -1.4620     1.3720     0.2180 ca         1 VEB      -0.031490
     13 C6          -1.2710     0.0490    -0.1660 ca         1 VEB       0.075038
     14 C7          -2.2970    -0.8690     0.0540 ca         1 VEB      -0.031490
     15 C8          -3.4750    -0.4850     0.7140 ca         1 VEB      -0.055557
     16 C9          -6.2330     0.6170     1.5250 ca         1 VEB      -0.037779
     17 C10         -6.7090     0.9280     0.2350 ca         1 VEB      -0.055557
     18 C11         -7.9840     0.5250    -0.1910 ca         1 VEB      -0.031490
     19 C12         -8.8130    -0.1900     0.6680 ca         1 VEB       0.075038
     20 C13         -8.3360    -0.5780     1.9150 ca         1 VEB      -0.031490
     21 C14         -7.0660    -0.1710     2.3420 ca         1 VEB      -0.055557
     22 H6          -6.0950     1.5140    -0.4480 ha         1 VEB       0.062694
     23 H7          -8.3330     0.7910    -1.1850 ha         1 VEB       0.065055
     24 H8          -8.9460    -1.1940     2.5700 ha         1 VEB       0.065055
     25 H9          -6.7600    -0.4730     3.3400 ha         1 VEB       0.062694
     26 H10         -2.7190     2.7980     1.1800 ha         1 VEB       0.062694
     27 H11         -0.7090     2.1320     0.0330 ha         1 VEB       0.065055
     28 H12         -2.1740    -1.9030    -0.2580 ha         1 VEB       0.065055
     29 H13         -4.2310    -1.2450     0.9080 ha         1 VEB       0.062694
     30 O           -0.1400    -0.4410    -0.7680 os         1 VEB      -0.343351
     31 O1         -10.0670    -0.5420     0.2340 os         1 VEB      -0.343351
     32 C15          1.0800     0.2610    -0.4630 c3         1 VEB       0.081542
     33 C16          2.2710    -0.6050    -0.9080 c3         1 VEB       0.101650
     34 H14          1.1420     0.4320     0.6190 h1         1 VEB       0.060081
     35 H15          1.0990     1.2150    -1.0020 h1         1 VEB       0.060081
     36 C17          3.6080     0.0810    -0.5750 c3         1 VEB       0.081542
     37 O2           2.2030    -1.8640    -0.2180 oh         1 VEB      -0.388276
     38 H16          2.2060    -0.8320    -1.9780 h1         1 VEB       0.065017
     39 H17          1.3040    -2.2080    -0.3760 ho         1 VEB       0.210692
     40 C18        -11.0930     0.0530     1.0520 c3         1 VEB       0.081544
     41 C19        -12.4860    -0.4550     0.6320 c3         1 VEB       0.101764
     42 H18        -11.0410     1.1420     0.9250 h1         1 VEB       0.060081
     43 H19        -10.9380    -0.1950     2.1090 h1         1 VEB       0.060081
     44 C20        -13.5730     0.4050     1.2900 c3         1 VEB       0.084607
     45 O3         -12.6430    -1.8150     1.0650 oh         1 VEB      -0.388274
     46 H20        -12.5920    -0.4540    -0.4580 h1         1 VEB       0.065019
     47 H21        -13.5720    -2.0550     0.9030 ho         1 VEB       0.210692
     48 O4         -14.8920    -0.0140     0.8680 os         1 VEB      -0.312742
     49 H22        -13.4100     1.4540     1.0120 h1         1 VEB       0.060196
     50 H23        -13.5260     0.2950     2.3800 h1         1 VEB       0.060196
     51 C21        -15.8580     0.8890     1.1980 c          1 VEB       0.267164
     52 C22        -17.2870     0.4780     0.8090 c3         1 VEB       0.057309
     53 C23        -17.8810    -0.2440     2.0350 c3         1 VEB      -0.049867
     54 H24        -17.3330    -1.1630     2.2700 hc         1 VEB       0.024155
     55 H25        -18.9370    -0.4950     1.8820 hc         1 VEB       0.024155
     56 H26        -17.8250     0.3860     2.9320 hc         1 VEB       0.024155
     57 O5         -15.6140     1.9230     1.8170 o          1 VEB      -0.265976
     58 C24        -18.0870     1.8030     0.6410 c3         1 VEB      -0.049867
     59 H28        -17.6660     2.4240    -0.1580 hc         1 VEB       0.024155
     60 H29        -18.0750     2.4050     1.5570 hc         1 VEB       0.024155
     61 H30        -19.1390     1.6080     0.4030 hc         1 VEB       0.024155
     62 H31         10.6930    -1.7110     2.6920 hc         1 VEB       0.024276
     63 H32          8.9440    -1.7320     2.5310 hc         1 VEB       0.024276
     64 C25          9.8790    -1.6670     1.9590 c3         1 VEB      -0.051690
     65 H33          9.3420     0.8280     2.8640 hc         1 VEB       0.024276
     66 H34          9.9510    -2.5690     1.3400 hc         1 VEB       0.024276
     67 H35         11.0850     0.7050     2.6430 hc         1 VEB       0.024276
     68 C26         10.1330     0.8000     2.1050 c3         1 VEB      -0.051690
     69 H36         12.4500    -1.5510     1.4300 ha         1 VEB       0.062694
     70 C27          9.9270    -0.3670     1.1040 c3         1 VEB       0.014609
     71 C28         12.3690    -0.9610     0.5210 ca         1 VEB      -0.055557
     72 H37          7.8560     1.5680     1.2460 ha         1 VEB       0.062694
     73 H38         10.1520     1.7730     1.5980 hc         1 VEB       0.024276
     74 C29          8.5610    -0.2980     0.3680 ca         1 VEB      -0.037779
     75 C30          7.6220     0.7220     0.6050 ca         1 VEB      -0.055557
     76 C31         11.1600    -0.3280     0.1660 ca         1 VEB      -0.037779
     77 H39         14.4190    -1.3750     0.0280 ha         1 VEB       0.065055
     78 C32         13.5200    -0.8420    -0.2660 ca         1 VEB      -0.031490
     79 C33          8.1740    -1.3290    -0.5080 ca         1 VEB      -0.055557
     80 C34          6.3300     0.6740     0.0590 ca         1 VEB      -0.031490
     81 H40          8.8680    -2.1330    -0.7520 ha         1 VEB       0.062694
     82 H41          5.6470     1.4850     0.2890 ha         1 VEB       0.065055
     83 C35          6.8810    -1.3780    -1.0490 ca         1 VEB      -0.031490
     84 C36          5.9380    -0.4010    -0.7340 ca         1 VEB       0.075038
     85 C37         11.1570     0.4280    -1.0210 ca         1 VEB      -0.055557
     86 H42         15.5970     1.6960    -1.4540 h1         1 VEB       0.060081
     87 C38         13.5010    -0.0590    -1.4150 ca         1 VEB       0.075038
     88 H43          6.5990    -2.2090    -1.6910 ha         1 VEB       0.065055
     89 O6           4.6840    -0.5920    -1.2510 os         1 VEB      -0.343351
     90 H44         10.2560     0.9440    -1.3460 ha         1 VEB       0.062694
     91 H45         15.8810     0.1760    -0.5620 h1         1 VEB       0.060081
     92 C39         15.7450     0.6140    -1.5570 c3         1 VEB       0.081544
     93 C40         12.3110     0.5460    -1.8100 ca         1 VEB      -0.031490
     94 O7          14.5910     0.0750    -2.2300 os         1 VEB      -0.343351
     95 O8          17.2970    -1.0770    -2.3350 oh         1 VEB      -0.388274
     96 H46         18.4210     0.8030    -0.8360 h1         1 VEB       0.060196
     97 C41         16.9970     0.3280    -2.3980 c3         1 VEB       0.101764
     98 H47         12.2790     1.1250    -2.7290 ha         1 VEB       0.065055
     99 H48         18.0960    -1.2080    -2.8770 ho         1 VEB       0.210692
    100 C42         18.2080     1.1030    -1.8690 c3         1 VEB       0.084596
    101 H49         16.8170     0.5610    -3.4530 h1         1 VEB       0.065019
    102 H50         18.0250     2.1820    -1.9190 h1         1 VEB       0.060196
    103 O9          19.3500     0.7750    -2.6870 os         1 VEB      -0.312982
    104 H51         22.5480    -0.3500    -1.5590 hc         1 VEB       0.023845
    105 O10         20.6210     2.0850    -1.2970 o          1 VEB      -0.266333
    106 C43         20.5200     1.3260    -2.2520 c          1 VEB       0.263425
    107 C44         22.8510     0.4410    -2.2540 c3         1 VEB      -0.053343
    108 H52         23.2380     1.2740    -1.6570 hc         1 VEB       0.023845
    109 C45         21.6760     0.8760    -3.1250 c3         1 VEB       0.039496
    110 H53         21.3550     0.0080    -3.7140 hc         1 VEB       0.040359
    111 H54         23.6700     0.0570    -2.8700 hc         1 VEB       0.023845
    112 C46         22.0710     2.0020    -4.0700 c3         1 VEB      -0.053343
    113 H55         22.4040     2.8890    -3.5180 hc         1 VEB       0.023845
    114 H56         21.2220     2.3030    -4.6930 hc         1 VEB       0.023845
    115 H57         22.8840     1.6880    -4.7320 hc         1 VEB       0.023845
    116 H58          3.7590     0.0440     0.5110 h1         1 VEB       0.060081
    117 H59          3.5910     1.1220    -0.9180 h1         1 VEB       0.060081
    118 C47        -17.5500    -1.8490    -0.3920 ca         1 CRO      -0.044120
    119 C48        -18.8210    -2.4530    -0.3360 ca         1 CRO      -0.058741
    120 C49        -18.9590    -3.8340    -0.1890 ca         1 CRO      -0.061987
    121 C50        -17.8270    -4.6360    -0.0940 ca         1 CRO      -0.062252
    122 C51        -16.5610    -4.0560    -0.1530 ca         1 CRO      -0.061987
    123 C52        -16.4230    -2.6730    -0.3050 ca         1 CRO      -0.058741
    124 C53        -17.4560    -0.3320    -0.5310 c3         1 CRO      -0.004518
    125 C54        -16.5130     0.0950    -1.6680 c3         1 CRO      -0.057373
    126 H27        -18.4470    -0.0490    -0.9210 hc         1 CRO       0.036042
    127 H60        -15.4780    -0.2200    -1.5100 hc         1 CRO       0.023692
    128 H61        -16.5190     1.1810    -1.8010 hc         1 CRO       0.023692
    129 H62        -16.8360    -0.3530    -2.6150 hc         1 CRO       0.023692
    130 H63        -15.4250    -2.2550    -0.3630 ha         1 CRO       0.062576
    131 H64        -17.9300    -5.7110     0.0230 ha         1 CRO       0.062273
    132 H65        -15.6770    -4.6860    -0.0840 ha         1 CRO       0.062283
    133 H66        -19.7230    -1.8470    -0.4040 ha         1 CRO       0.062576
    134 H67        -19.9490    -4.2800    -0.1480 ha         1 CRO       0.062283
@<TRIPOS>BOND
     1   114   112 1   
     2   115   112 1   
     3   112   113 1   
     4   112   109 1   
     5   110   109 1   
     6   101    97 1   
     7   109   106 1   
     8   109   107 1   
     9    99    95 1   
    10    98    93 1   
    11   111   107 1   
    12   103   106 1   
    13   103   100 1   
    14    95    97 1   
    15    97   100 1   
    16    97    92 1   
    17   106   105 2   
    18   107   108 1   
    19   107   104 1   
    20    94    92 1   
    21    94    87 1   
    22   102   100 1   
    23    38    33 1   
    24    93    87 ar  
    25    93    85 ar  
    26   100    96 1   
    27    88    83 1   
    28    90    85 1   
    29    92    86 1   
    30    92    91 1   
    31    87    78 ar  
    32    89    84 1   
    33    89    36 1   
    34    23    18 1   
    35    83    84 ar  
    36    83    79 ar  
    37    85    76 ar  
    38    35    32 1   
    39    33    36 1   
    40    33    32 1   
    41    33    37 1   
    42    84    80 ar  
    43    81    79 1   
    44   117    36 1   
    45    30    32 1   
    46    30    13 1   
    47    79    74 ar  
    48    36   116 1   
    49    59    58 1   
    50    46    41 1   
    51    32    34 1   
    52    22    17 1   
    53    39    37 1   
    54    18    17 ar  
    55    18    19 ar  
    56    13    12 ar  
    57    13    14 ar  
    58    27    12 1   
    59    61    58 1   
    60    80    82 1   
    61    80    75 ar  
    62    28    14 1   
    63    78    77 1   
    64    78    71 ar  
    65    76    71 ar  
    66    76    70 1   
    67    12    11 ar  
    68    14    15 ar  
    69    74    75 ar  
    70    74    70 1   
    71    17    16 ar  
    72    58    52 1   
    73    58    60 1   
    74    31    19 1   
    75    31    40 1   
    76    75    72 1   
    77    41    45 1   
    78    41    40 1   
    79    41    44 1   
    80    19    20 ar  
    81    71    69 1   
    82    47    45 1   
    83    11    26 1   
    84    11    10 ar  
    85    15    29 1   
    86    15    10 ar  
    87    48    44 1   
    88    48    51 1   
    89    52    51 1   
    90    52    53 1   
    91    70    64 1   
    92    70    68 1   
    93    66    64 1   
    94    49    44 1   
    95     5     2 1   
    96    10     1 1   
    97    40    42 1   
    98    40    43 1   
    99    44    50 1   
   100    51    57 2   
   101    16     1 1   
   102    16    21 ar  
   103    73    68 1   
   104    64    63 1   
   105    64    62 1   
   106    55    53 1   
   107    20    21 ar  
   108    20    24 1   
   109     1     2 1   
   110     1     6 1   
   111    53    54 1   
   112    53    56 1   
   113    68    67 1   
   114    68    65 1   
   115     2     3 1   
   116     2     4 1   
   117    21    25 1   
   118     6     8 1   
   119     6     7 1   
   120     6     9 1   
   121   126   124 1   
   122   129   125 1   
   123   133   119 1   
   124   119   118 ar  
   125   119   120 ar  
   126   124   118 1   
   127   124   125 1   
   128   128   125 1   
   129   134   120 1   
   130   118   123 ar  
   131   120   121 ar  
   132   125   127 1   
   133   121   131 1   
   134   121   122 ar  
   135   123   122 ar  
   136   123   130 1   
   137   122   132 1   
   138   124    52 1   
@<TRIPOS>SUBSTRUCTURE
     1 VEB         1 TEMP              0 ****  ****    0 ROOT
