@<TRIPOS>MOLECULE
*****
  150   155     1     0     0
SMALL
gas


@<TRIPOS>ATOM
      1 C           -2.9190     1.6410     2.0060 c3         1 VEB       0.014609
      2 C1          -3.1190     3.1760     2.1380 c3         1 VEB      -0.051690
      3 H           -2.2870     3.6550     2.6670 hc         1 VEB       0.024276
      4 H1          -4.0270     3.4110     2.7090 hc         1 VEB       0.024276
      5 H2          -3.2150     3.6610     1.1590 hc         1 VEB       0.024276
      6 C2          -2.5760     1.1260     3.4320 c3         1 VEB      -0.051690
      7 H3          -1.6000     1.4990     3.7680 hc         1 VEB       0.024276
      8 H4          -2.5330     0.0300     3.4700 hc         1 VEB       0.024276
      9 H5          -3.3110     1.4580     4.1750 hc         1 VEB       0.024276
     10 C3          -1.6870     1.2620     1.1410 ca         1 VEB      -0.037779
     11 C4          -0.6520     2.1790     0.8730 ca         1 VEB      -0.055557
     12 C5           0.5440     1.7860     0.2490 ca         1 VEB      -0.031490
     13 C6           0.7420     0.4600    -0.1220 ca         1 VEB       0.075038
     14 C7          -0.2950    -0.4520     0.0790 ca         1 VEB      -0.031490
     15 C8          -1.4890    -0.0620     0.7110 ca         1 VEB      -0.055557
     16 C9          -4.2740     1.1000     1.4760 ca         1 VEB      -0.037779
     17 C10         -4.6780     1.3430     0.1500 ca         1 VEB      -0.055557
     18 C11         -5.9620     0.9890    -0.3000 ca         1 VEB      -0.031490
     19 C12         -6.8840     0.4010     0.5660 ca         1 VEB       0.075038
     20 C13         -6.4850     0.1030     1.8640 ca         1 VEB      -0.031490
     21 C14         -5.2020     0.4520     2.3130 ca         1 VEB      -0.055557
     22 H6          -4.0010     1.8360    -0.5460 ha         1 VEB       0.062694
     23 H7          -6.2460     1.1970    -1.3280 ha         1 VEB       0.065055
     24 H8          -7.1450    -0.4140     2.5530 ha         1 VEB       0.065055
     25 H9          -4.9640     0.2160     3.3470 ha         1 VEB       0.062694
     26 H10         -0.7300     3.2200     1.1730 ha         1 VEB       0.062694
     27 H11          1.3020     2.5420     0.0790 ha         1 VEB       0.065055
     28 H12         -0.1690    -1.4890    -0.2240 ha         1 VEB       0.065055
     29 H13         -2.2510    -0.8180     0.8940 ha         1 VEB       0.062694
     30 O            1.8850    -0.0380    -0.6940 os         1 VEB      -0.343351
     31 O1          -8.1210     0.1020     0.0500 os         1 VEB      -0.343351
     32 C15          3.1010     0.6760    -0.3970 c3         1 VEB       0.081542
     33 C16          4.3010    -0.1840    -0.8390 c3         1 VEB       0.101650
     34 H14          3.1630     0.8560     0.6830 h1         1 VEB       0.060081
     35 H15          3.1130     1.6250    -0.9440 h1         1 VEB       0.060081
     36 C17          5.6400     0.5100    -0.5240 c3         1 VEB       0.081542
     37 O2           4.2450    -1.4370    -0.1350 oh         1 VEB      -0.388276
     38 H16          4.2310    -0.4240    -1.9050 h1         1 VEB       0.065017
     39 H17          3.3480    -1.7910    -0.2880 ho         1 VEB       0.210692
     40 C18         -9.2230     0.3720     0.9370 c3         1 VEB       0.081544
     41 C19        -10.5580    -0.0100     0.2650 c3         1 VEB       0.101764
     42 H18         -9.2180     1.4430     1.1750 h1         1 VEB       0.060081
     43 H19         -9.1270    -0.2140     1.8570 h1         1 VEB       0.060081
     44 C20        -11.7410     0.5660     1.0560 c3         1 VEB       0.084607
     45 O3         -10.6770    -1.4420     0.2440 oh         1 VEB      -0.388274
     46 H20        -10.5850     0.3250    -0.7780 h1         1 VEB       0.065019
     47 H21        -11.5860    -1.6470    -0.0380 ho         1 VEB       0.210692
     48 O4         -12.9930     0.2400     0.4060 os         1 VEB      -0.312733
     49 H22        -11.6500     1.6570     1.1180 h1         1 VEB       0.060196
     50 H23        -11.7490     0.1330     2.0640 h1         1 VEB       0.060196
     51 C21        -14.0780     0.7030     1.0870 c          1 VEB       0.267468
     52 C22        -15.4310     0.4590     0.4020 c3         1 VEB       0.060686
     53 C23        -16.2640    -0.6220     1.1960 c3         1 VEB      -0.031183
     54 H25        -17.2580    -0.6250     0.7330 hc         1 VEB       0.028393
     55 H26        -16.4410    -0.2440     2.2150 hc         1 VEB       0.028393
     56 O5         -13.9840     1.2540     2.1820 o          1 VEB      -0.265963
     57 C24        -16.2100     1.8040     0.6560 c3         1 VEB      -0.049572
     58 H28        -15.6770     2.6680     0.2470 hc         1 VEB       0.024166
     59 H29        -16.3470     2.0000     1.7270 hc         1 VEB       0.024166
     60 H30        -17.2120     1.7780     0.2100 hc         1 VEB       0.024166
     61 H31         12.7430    -1.3200     2.6470 hc         1 VEB       0.024276
     62 H32         10.9990    -1.3500     2.4630 hc         1 VEB       0.024276
     63 C25         11.9400    -1.2640     1.9050 c3         1 VEB      -0.051690
     64 H33         11.3830     1.2170     2.8530 hc         1 VEB       0.024276
     65 H34         12.0280    -2.1510     1.2660 hc         1 VEB       0.024276
     66 H35         13.1270     1.0960     2.6540 hc         1 VEB       0.024276
     67 C26         12.1830     1.2020     2.1040 c3         1 VEB      -0.051690
     68 H36         14.5420    -0.9980     1.5020 ha         1 VEB       0.062694
     69 C27         11.9870     0.0550     1.0780 c3         1 VEB       0.014609
     70 C28         14.4580    -0.4570     0.5640 ca         1 VEB      -0.055557
     71 H37          9.9250     2.0010     1.2330 ha         1 VEB       0.062694
     72 H38         12.2110     2.1840     1.6150 hc         1 VEB       0.024276
     73 C29         10.6190     0.1370     0.3430 ca         1 VEB      -0.037779
     74 C30          9.6820     1.1570     0.5930 ca         1 VEB      -0.055557
     75 C31         13.2320     0.1080     0.1550 ca         1 VEB      -0.037779
     76 H39         16.5290    -0.8230     0.1370 ha         1 VEB       0.065055
     77 C32         15.6220    -0.3330    -0.2050 ca         1 VEB      -0.031490
     78 C33         10.2190    -0.8900    -0.5330 ca         1 VEB      -0.055557
     79 C34          8.3790     1.1080     0.0690 ca         1 VEB      -0.031490
     80 H40         10.9080    -1.6940    -0.7890 ha         1 VEB       0.062694
     81 H41          7.6990     1.9170     0.3140 ha         1 VEB       0.065055
     82 C35          8.9160    -0.9390    -1.0530 ca         1 VEB      -0.031490
     83 C36          7.9750     0.0340    -0.7180 ca         1 VEB       0.075038
     84 C37         13.2270     0.8050    -1.0650 ca         1 VEB      -0.055557
     85 H42         17.7210     2.1200    -1.3900 h1         1 VEB       0.060081
     86 C38         15.6010     0.3890    -1.3910 ca         1 VEB       0.075038
     87 H43          8.6250    -1.7690    -1.6920 ha         1 VEB       0.065055
     88 O6           6.7110    -0.1620    -1.2120 os         1 VEB      -0.343351
     89 H44         12.3170     1.2720    -1.4350 ha         1 VEB       0.062694
     90 H45         18.0150     0.5730    -0.5510 h1         1 VEB       0.060081
     91 C39         17.8630     1.0420    -1.5280 c3         1 VEB       0.081544
     92 C40         14.3960     0.9280    -1.8360 ca         1 VEB      -0.031490
     93 O7          16.6980     0.5270    -2.2000 os         1 VEB      -0.343351
     94 O8          19.4030    -0.6280    -2.3760 oh         1 VEB      -0.388274
     95 H46         20.5390     1.2160    -0.8300 h1         1 VEB       0.060196
     96 C41         19.1050     0.7790    -2.3940 c3         1 VEB       0.101764
     97 H47         14.3620     1.4610    -2.7830 ha         1 VEB       0.065055
     98 H48         20.2000    -0.7430    -2.9250 ho         1 VEB       0.210692
     99 C42         20.3250     1.5350    -1.8570 c3         1 VEB       0.084596
    100 H49         18.9130     1.0440    -3.4400 h1         1 VEB       0.065019
    101 H50         20.1490     2.6160    -1.8870 h1         1 VEB       0.060196
    102 O9          21.4640     1.2140    -2.6820 os         1 VEB      -0.312982
    103 H51         24.6560     0.0660    -1.5390 hc         1 VEB       0.023845
    104 O10         22.7430     2.5010    -1.2790 o          1 VEB      -0.266333
    105 C43         22.6380     1.7500    -2.2400 c          1 VEB       0.263425
    106 C44         24.9650     0.8530    -2.2360 c3         1 VEB      -0.053343
    107 H52         25.3570     1.6850    -1.6400 hc         1 VEB       0.023845
    108 C45         23.7940     1.2930    -3.1100 c3         1 VEB       0.039496
    109 H53         23.4700     0.4250    -3.6980 hc         1 VEB       0.040359
    110 H54         25.7830     0.4610    -2.8490 hc         1 VEB       0.023845
    111 C46         24.1990     2.4150    -4.0560 c3         1 VEB      -0.053343
    112 H55         24.5350     3.3010    -3.5050 hc         1 VEB       0.023845
    113 H56         23.3540     2.7200    -4.6830 hc         1 VEB       0.023845
    114 H57         25.0130     2.0950    -4.7140 hc         1 VEB       0.023845
    115 H58          5.8060     0.4770     0.5610 h1         1 VEB       0.060081
    116 H59          5.6140     1.5500    -0.8700 h1         1 VEB       0.060081
    117 C47        -15.3640    -1.1180    -1.7490 ca         1 CRO      -0.044109
    118 C49        -16.5540    -1.7390    -2.1720 ca         1 CRO      -0.058740
    119 C51        -16.5520    -3.0410    -2.6740 ca         1 CRO      -0.061987
    120 C53        -15.3550    -3.7410    -2.7750 ca         1 CRO      -0.062252
    121 C55        -14.1620    -3.1320    -2.3930 ca         1 CRO      -0.061987
    122 C57        -14.1640    -1.8270    -1.8920 ca         1 CRO      -0.058740
    123 C59        -15.4280     0.2890    -1.1750 c3         1 CRO      -0.004225
    124 C61        -14.4750     1.2310    -1.9410 c3         1 CRO      -0.057362
    125 H24        -16.4200     0.6480    -1.4930 hc         1 CRO       0.036053
    126 H60        -13.4250     0.9400    -1.8610 hc         1 CRO       0.023692
    127 H62        -14.5640     2.2660    -1.6020 hc         1 CRO       0.023692
    128 H64        -14.7180     1.2220    -3.0110 hc         1 CRO       0.023692
    129 H66        -13.2170    -1.3790    -1.6120 ha         1 CRO       0.062576
    130 H68        -15.3520    -4.7600    -3.1550 ha         1 CRO       0.062273
    131 H70        -13.2260    -3.6780    -2.4830 ha         1 CRO       0.062283
    132 H72        -17.5060    -1.2140    -2.1010 ha         1 CRO       0.062576
    133 H74        -17.4850    -3.5100    -2.9750 ha         1 CRO       0.062283
    134 C48        -16.8940    -3.0670     1.7080 ca         1 CRO      -0.045156
    135 C50        -18.0430    -3.1210     0.8960 ca         1 CRO      -0.058776
    136 C52        -19.0710    -4.0400     1.1310 ca         1 CRO      -0.061988
    137 C54        -18.9650    -4.9500     2.1750 ca         1 CRO      -0.062252
    138 C56        -17.8350    -4.9320     2.9850 ca         1 CRO      -0.061988
    139 C58        -16.8160    -3.9990     2.7570 ca         1 CRO      -0.058776
    140 C60        -15.7510    -2.0880     1.3630 c3         1 CRO      -0.017981
    141 C62        -14.5860    -2.1630     2.3640 c3         1 CRO      -0.058380
    142 H27        -15.3540    -2.4580     0.4200 hc         1 CRO       0.034974
    143 H61        -14.8930    -1.8290     3.3620 hc         1 CRO       0.023657
    144 H63        -13.7350    -1.5600     2.0540 hc         1 CRO       0.023657
    145 H65        -14.1970    -3.1840     2.4460 hc         1 CRO       0.023657
    146 H67        -15.9550    -4.0420     3.4170 ha         1 CRO       0.062575
    147 H69        -19.7530    -5.6760     2.3510 ha         1 CRO       0.062273
    148 H71        -17.7380    -5.6510     3.7940 ha         1 CRO       0.062283
    149 H73        -18.1550    -2.4520     0.0490 ha         1 CRO       0.062575
    150 H75        -19.9460    -4.0500     0.4880 ha         1 CRO       0.062283
@<TRIPOS>BOND
     1   113   111 1   
     2   114   111 1   
     3   111   112 1   
     4   111   108 1   
     5   109   108 1   
     6   100    96 1   
     7   108   105 1   
     8   108   106 1   
     9    98    94 1   
    10    97    92 1   
    11   110   106 1   
    12   102   105 1   
    13   102    99 1   
    14    94    96 1   
    15    96    99 1   
    16    96    91 1   
    17   105   104 2   
    18   106   107 1   
    19   106   103 1   
    20    93    91 1   
    21    93    86 1   
    22   101    99 1   
    23    38    33 1   
    24    92    86 ar  
    25    92    84 ar  
    26    99    95 1   
    27    87    82 1   
    28    89    84 1   
    29    91    85 1   
    30    91    90 1   
    31    86    77 ar  
    32    88    83 1   
    33    88    36 1   
    34    23    18 1   
    35    82    83 ar  
    36    82    78 ar  
    37    84    75 ar  
    38    35    32 1   
    39    33    36 1   
    40    33    32 1   
    41    33    37 1   
    42    83    79 ar  
    43    80    78 1   
    44   116    36 1   
    45    30    32 1   
    46    30    13 1   
    47    78    73 ar  
    48    36   115 1   
    49    58    57 1   
    50    46    41 1   
    51    32    34 1   
    52    22    17 1   
    53    39    37 1   
    54    18    17 ar  
    55    18    19 ar  
    56    13    12 ar  
    57    13    14 ar  
    58    27    12 1   
    59    60    57 1   
    60    79    81 1   
    61    79    74 ar  
    62    28    14 1   
    63    77    76 1   
    64    77    70 ar  
    65    75    70 ar  
    66    75    69 1   
    67    12    11 ar  
    68    14    15 ar  
    69    73    74 ar  
    70    73    69 1   
    71    17    16 ar  
    72    57    52 1   
    73    57    59 1   
    74    31    19 1   
    75    31    40 1   
    76    74    71 1   
    77    41    45 1   
    78    41    40 1   
    79    41    44 1   
    80    19    20 ar  
    81    70    68 1   
    82    47    45 1   
    83    11    26 1   
    84    11    10 ar  
    85    15    29 1   
    86    15    10 ar  
    87    48    44 1   
    88    48    51 1   
    89    52    51 1   
    90    52    53 1   
    91    69    63 1   
    92    69    67 1   
    93    65    63 1   
    94    49    44 1   
    95     5     2 1   
    96    10     1 1   
    97    40    42 1   
    98    40    43 1   
    99    44    50 1   
   100    51    56 2   
   101    16     1 1   
   102    16    21 ar  
   103    72    67 1   
   104    63    62 1   
   105    63    61 1   
   106    54    53 1   
   107    20    21 ar  
   108    20    24 1   
   109     1     2 1   
   110     1     6 1   
   111    53    55 1   
   112    67    66 1   
   113    67    64 1   
   114     2     3 1   
   115     2     4 1   
   116    21    25 1   
   117     6     8 1   
   118     6     7 1   
   119     6     9 1   
   120   125   123 1   
   121   128   124 1   
   122   132   118 1   
   123   118   117 ar  
   124   118   119 ar  
   125   123   117 1   
   126   123   124 1   
   127   127   124 1   
   128   133   119 1   
   129   117   122 ar  
   130   119   120 ar  
   131   124   126 1   
   132   120   130 1   
   133   120   121 ar  
   134   122   121 ar  
   135   122   129 1   
   136   121   131 1   
   137   142   140 1   
   138   145   141 1   
   139   149   135 1   
   140   135   134 ar  
   141   135   136 ar  
   142   140   134 1   
   143   140   141 1   
   144   144   141 1   
   145   150   136 1   
   146   134   139 ar  
   147   136   137 ar  
   148   141   143 1   
   149   137   147 1   
   150   137   138 ar  
   151   139   138 ar  
   152   139   146 1   
   153   138   148 1   
   154   123    52 1   
   155   140    53 1   
@<TRIPOS>SUBSTRUCTURE
     1 VEB         1 TEMP              0 ****  ****    0 ROOT
