@<TRIPOS>MOLECULE
*****
  134   138     1     0     0
SMALL
gas


@<TRIPOS>ATOM
      1 C           -9.5690     1.2920     2.4990 c3         1 VEB       0.014609
      2 C1          -9.7730     2.8270     2.6350 c3         1 VEB      -0.051690
      3 H           -8.9280     3.3080     3.1420 hc         1 VEB       0.024276
      4 H1         -10.6680     3.0560     3.2270 hc         1 VEB       0.024276
      5 H2          -9.8940     3.3150     1.6600 hc         1 VEB       0.024276
      6 C2          -9.1950     0.7860     3.9180 c3         1 VEB      -0.051690
      7 H3          -8.2310     1.1970     4.2460 hc         1 VEB       0.024276
      8 H4          -9.1050    -0.3070     3.9550 hc         1 VEB       0.024276
      9 H5          -9.9390     1.0870     4.6660 hc         1 VEB       0.024276
     10 C3          -8.3700     0.9110     1.5960 ca         1 VEB      -0.037779
     11 C4          -7.3640     1.8340     1.2560 ca         1 VEB      -0.055557
     12 C5          -6.2120     1.4410     0.5610 ca         1 VEB      -0.031490
     13 C6          -6.0310     0.1100     0.1940 ca         1 VEB       0.075038
     14 C7          -7.0410    -0.8090     0.4700 ca         1 VEB      -0.031490
     15 C8          -8.1900    -0.4180     1.1720 ca         1 VEB      -0.055557
     16 C9         -10.9210     0.7350     1.9870 ca         1 VEB      -0.037779
     17 C10        -11.3830     1.0740     0.6980 ca         1 VEB      -0.055557
     18 C11        -12.6610     0.7040     0.2630 ca         1 VEB      -0.031490
     19 C12        -13.5050    -0.0030     1.1130 ca         1 VEB       0.075038
     20 C13        -13.0440    -0.4210     2.3560 ca         1 VEB      -0.031490
     21 C14        -11.7690    -0.0470     2.7930 ca         1 VEB      -0.055557
     22 H6         -10.7530     1.6550     0.0260 ha         1 VEB       0.062694
     23 H7         -13.0030     0.9910    -0.7270 ha         1 VEB       0.065055
     24 H8         -13.6710    -1.0310     3.0000 ha         1 VEB       0.065055
     25 H9         -11.4710    -0.3690     3.7870 ha         1 VEB       0.062694
     26 H10         -7.4360     2.8790     1.5470 ha         1 VEB       0.062694
     27 H11         -5.4730     2.1990     0.3280 ha         1 VEB       0.065055
     28 H12         -6.9260    -1.8480     0.1700 ha         1 VEB       0.065055
     29 H13         -8.9370    -1.1760     1.4060 ha         1 VEB       0.062694
     30 O           -4.9210    -0.3810    -0.4440 os         1 VEB      -0.343351
     31 O1         -14.7680    -0.3030     0.6730 os         1 VEB      -0.343351
     32 C15         -3.6940     0.3070    -0.1430 c3         1 VEB       0.081542
     33 C16         -2.5130    -0.5680    -0.5910 c3         1 VEB       0.101650
     34 H14         -3.6250     0.4780     0.9400 h1         1 VEB       0.060081
     35 H15         -3.6670     1.2620    -0.6800 h1         1 VEB       0.060081
     36 C17         -1.1760     0.1110    -0.2480 c3         1 VEB       0.081542
     37 O2          -2.5920    -1.8290     0.0950 oh         1 VEB      -0.388276
     38 H16         -2.5770    -0.7890    -1.6620 h1         1 VEB       0.065017
     39 H17         -3.4950    -2.1640    -0.0640 ho         1 VEB       0.210692
     40 C18        -15.7670     0.3150     1.5070 c3         1 VEB       0.081544
     41 C19        -17.1670    -0.0480     0.9940 c3         1 VEB       0.101764
     42 H18        -15.6280     1.4030     1.4700 h1         1 VEB       0.060081
     43 H19        -15.6700    -0.0330     2.5420 h1         1 VEB       0.060081
     44 C20        -18.2280     0.8250     1.6720 c3         1 VEB       0.084596
     45 O3         -17.4440    -1.4250     1.2970 oh         1 VEB      -0.388274
     46 H20        -17.2200     0.0500    -0.0960 h1         1 VEB       0.065019
     47 H21        -18.3500    -1.5950     0.9810 ho         1 VEB       0.210692
     48 O4         -19.5270     0.4460     1.1770 os         1 VEB      -0.312982
     49 H22        -18.0460     1.8830     1.4500 h1         1 VEB       0.060196
     50 H23        -18.2110     0.6590     2.7560 h1         1 VEB       0.060196
     51 C21        -20.5490     1.1740     1.7110 c          1 VEB       0.263425
     52 C22        -21.8850     0.6710     1.2020 c3         1 VEB       0.039496
     53 C23        -22.6370    -0.0070     2.3410 c3         1 VEB      -0.053343
     54 H24        -22.0490    -0.8320     2.7580 hc         1 VEB       0.023845
     55 H25        -23.5920    -0.4130     1.9900 hc         1 VEB       0.023845
     56 H26        -22.8450     0.6940     3.1570 hc         1 VEB       0.023845
     57 O5         -20.4100     2.0920     2.5080 o          1 VEB      -0.266333
     58 C24        -22.6850     1.8290     0.6160 c3         1 VEB      -0.053343
     59 H27        -21.7090    -0.0620     0.4060 hc         1 VEB       0.040359
     60 H28        -22.1260     2.3190    -0.1890 hc         1 VEB       0.023845
     61 H29        -22.9050     2.5900     1.3730 hc         1 VEB       0.023845
     62 H30        -23.6360     1.4760     0.2040 hc         1 VEB       0.023845
     63 H31          5.8520    -1.7310     3.1240 hc         1 VEB       0.024276
     64 H32          4.1070    -1.7700     2.9330 hc         1 VEB       0.024276
     65 C25          5.0510    -1.6850     2.3780 c3         1 VEB      -0.051690
     66 H33          4.4650     0.7990     3.3010 hc         1 VEB       0.024276
     67 H34          5.1450    -2.5770     1.7480 hc         1 VEB       0.024276
     68 H35          6.2140     0.6810     3.1240 hc         1 VEB       0.024276
     69 C26          5.2760     0.7820     2.5630 c3         1 VEB      -0.051690
     70 H36          7.6470    -1.4620     1.9340 ha         1 VEB       0.062694
     71 C27          5.0970    -0.3720     1.5420 c3         1 VEB       0.014609
     72 C28          7.5620    -0.9010     1.0070 ca         1 VEB      -0.055557
     73 H37          3.0440     1.5840     1.6240 ha         1 VEB       0.062694
     74 H38          5.3080     1.7610     2.0690 hc         1 VEB       0.024276
     75 C29          3.7420    -0.3020     0.7870 ca         1 VEB      -0.037779
     76 C30          2.8120     0.7330     0.9900 ca         1 VEB      -0.055557
     77 C31          6.3410    -0.3120     0.6210 ca         1 VEB      -0.037779
     78 H39          9.6230    -1.2840     0.5460 ha         1 VEB       0.065055
     79 C32          8.7170    -0.7770     0.2270 ca         1 VEB      -0.031490
     80 C33          3.3620    -1.3400    -0.0860 ca         1 VEB      -0.055557
     81 C34          1.5330     0.6940     0.4160 ca         1 VEB      -0.031490
     82 H40          4.0510    -2.1530    -0.3080 ha         1 VEB       0.062694
     83 H41          0.8560     1.5170     0.6190 ha         1 VEB       0.065055
     84 C35          2.0820    -1.3800    -0.6550 ca         1 VEB      -0.031490
     85 C36          1.1460    -0.3870    -0.3730 ca         1 VEB       0.075038
     86 C37          6.3320     0.4110    -0.5860 ca         1 VEB      -0.055557
     87 H42         10.7690     1.6810    -0.9060 h1         1 VEB       0.060081
     88 C38          8.6900    -0.0360    -0.9480 ca         1 VEB       0.075038
     89 H43          1.8030    -2.2150    -1.2940 ha         1 VEB       0.065055
     90 O6          -0.0990    -0.5670    -0.9150 os         1 VEB      -0.343351
     91 H44          5.4230     0.8960    -0.9360 ha         1 VEB       0.062694
     92 H45         11.1430     0.0960    -0.1690 h1         1 VEB       0.060081
     93 C39         10.9430     0.6180    -1.1110 c3         1 VEB       0.081544
     94 C40          7.4900     0.5310    -1.3690 ca         1 VEB      -0.031490
     95 O7           9.7760     0.0940    -1.7710 os         1 VEB      -0.343351
     96 O8          12.5230    -0.9440    -2.0810 oh         1 VEB      -0.388274
     97 H46         13.6510     0.8930    -0.5280 h1         1 VEB       0.060196
     98 C41         12.1570     0.4470    -2.0340 c3         1 VEB       0.101764
     99 H47          7.4510     1.0810    -2.3060 ha         1 VEB       0.065055
    100 H48         13.3310    -0.9940    -2.6230 ho         1 VEB       0.210692
    101 C42         13.3620     1.2460    -1.5260 c3         1 VEB       0.084596
    102 H49         11.9080     0.7370    -3.0610 h1         1 VEB       0.065019
    103 H50         13.1270     2.3150    -1.4960 h1         1 VEB       0.060196
    104 O9          14.4670     1.0210    -2.4270 os         1 VEB      -0.312973
    105 O10         15.7340     2.3860    -1.0880 o          1 VEB      -0.266321
    106 C43         15.6240     1.6450    -2.0550 c          1 VEB       0.263728
    107 C44         17.2610    -0.1550    -2.6150 c3         1 VEB      -0.034642
    108 H52         16.5060    -0.6450    -1.9840 hc         1 VEB       0.028082
    109 C45         16.7550     1.2520    -2.9950 c3         1 VEB       0.042890
    110 H53         16.3360     1.2590    -4.0100 hc         1 VEB       0.040673
    111 H54         18.1560    -0.0860    -1.9830 hc         1 VEB       0.028082
    112 C46         17.8610     2.3050    -2.9470 c3         1 VEB      -0.053050
    113 H55         18.3200     2.3590    -1.9540 hc         1 VEB       0.023856
    114 H56         17.4580     3.2980    -3.1760 hc         1 VEB       0.023856
    115 H57         18.6500     2.0920    -3.6720 hc         1 VEB       0.023856
    116 H58         -1.0360     0.0730     0.8400 h1         1 VEB       0.060081
    117 H59         -1.1870     1.1520    -0.5910 h1         1 VEB       0.060081
    118 C47         17.4620    -2.5220    -3.4180 ca         1 CRO      -0.045167
    119 C48         16.2120    -3.1650    -3.4610 ca         1 CRO      -0.058776
    120 C49         16.0740    -4.4950    -3.0610 ca         1 CRO      -0.061988
    121 C50         17.1840    -5.2040    -2.6140 ca         1 CRO      -0.062252
    122 C51         18.4290    -4.5810    -2.5600 ca         1 CRO      -0.061988
    123 C52         18.5670    -3.2470    -2.9520 ca         1 CRO      -0.058776
    124 C53         17.5460    -1.0600    -3.8370 c3         1 CRO      -0.018271
    125 C54         18.8650    -0.7020    -4.5290 c3         1 CRO      -0.058391
    126 H51         16.7560    -0.9040    -4.5850 hc         1 CRO       0.034963
    127 H60         19.7030    -0.6690    -3.8230 hc         1 CRO       0.023657
    128 H61         18.7990     0.2770    -5.0110 hc         1 CRO       0.023657
    129 H62         19.1120    -1.4310    -5.3100 hc         1 CRO       0.023657
    130 H63         19.5500    -2.7870    -2.8830 ha         1 CRO       0.062575
    131 H64         17.0790    -6.2400    -2.3040 ha         1 CRO       0.062273
    132 H65         19.2960    -5.1350    -2.2070 ha         1 CRO       0.062283
    133 H66         15.3300    -2.6290    -3.8040 ha         1 CRO       0.062575
    134 H67         15.0990    -4.9740    -3.0970 ha         1 CRO       0.062283
@<TRIPOS>BOND
     1   114   112 1   
     2   115   112 1   
     3   112   113 1   
     4   112   109 1   
     5   110   109 1   
     6   102    98 1   
     7   109   106 1   
     8   109   107 1   
     9   100    96 1   
    10    99    94 1   
    11   111   107 1   
    12   104   106 1   
    13   104   101 1   
    14    96    98 1   
    15    98   101 1   
    16    98    93 1   
    17   106   105 2   
    18   107   108 1   
    19    95    93 1   
    20    95    88 1   
    21   103   101 1   
    22    38    33 1   
    23    94    88 ar  
    24    94    86 ar  
    25   101    97 1   
    26    89    84 1   
    27    91    86 1   
    28    93    87 1   
    29    93    92 1   
    30    88    79 ar  
    31    90    85 1   
    32    90    36 1   
    33    23    18 1   
    34    84    85 ar  
    35    84    80 ar  
    36    86    77 ar  
    37    35    32 1   
    38    33    36 1   
    39    33    32 1   
    40    33    37 1   
    41    85    81 ar  
    42    82    80 1   
    43   117    36 1   
    44    30    32 1   
    45    30    13 1   
    46    80    75 ar  
    47    36   116 1   
    48    60    58 1   
    49    46    41 1   
    50    32    34 1   
    51    22    17 1   
    52    39    37 1   
    53    18    17 ar  
    54    18    19 ar  
    55    13    12 ar  
    56    13    14 ar  
    57    27    12 1   
    58    62    58 1   
    59    81    83 1   
    60    81    76 ar  
    61    28    14 1   
    62    79    78 1   
    63    79    72 ar  
    64    77    72 ar  
    65    77    71 1   
    66    12    11 ar  
    67    14    15 ar  
    68    59    52 1   
    69    75    76 ar  
    70    75    71 1   
    71    17    16 ar  
    72    58    52 1   
    73    58    61 1   
    74    31    19 1   
    75    31    40 1   
    76    76    73 1   
    77    41    45 1   
    78    41    40 1   
    79    41    44 1   
    80    19    20 ar  
    81    72    70 1   
    82    47    45 1   
    83    11    26 1   
    84    11    10 ar  
    85    15    29 1   
    86    15    10 ar  
    87    48    44 1   
    88    48    51 1   
    89    52    51 1   
    90    52    53 1   
    91    71    65 1   
    92    71    69 1   
    93    67    65 1   
    94    49    44 1   
    95     5     2 1   
    96    10     1 1   
    97    40    42 1   
    98    40    43 1   
    99    44    50 1   
   100    51    57 2   
   101    16     1 1   
   102    16    21 ar  
   103    74    69 1   
   104    65    64 1   
   105    65    63 1   
   106    55    53 1   
   107    20    21 ar  
   108    20    24 1   
   109     1     2 1   
   110     1     6 1   
   111    53    54 1   
   112    53    56 1   
   113    69    68 1   
   114    69    66 1   
   115     2     3 1   
   116     2     4 1   
   117    21    25 1   
   118     6     8 1   
   119     6     7 1   
   120     6     9 1   
   121   126   124 1   
   122   129   125 1   
   123   133   119 1   
   124   119   118 ar  
   125   119   120 ar  
   126   124   118 1   
   127   124   125 1   
   128   128   125 1   
   129   134   120 1   
   130   118   123 ar  
   131   120   121 ar  
   132   125   127 1   
   133   121   131 1   
   134   121   122 ar  
   135   123   122 ar  
   136   123   130 1   
   137   122   132 1   
   138   124   107 1   
@<TRIPOS>SUBSTRUCTURE
     1 VEB         1 TEMP              0 ****  ****    0 ROOT
