@<TRIPOS>MOLECULE
*****
 150 155 0 0 0
SMALL
GASTEIGER

@<TRIPOS>ATOM
      1 C          -2.9190    1.6407    2.0062 C.3     1  VEB1        0.0151
      2 C1         -3.1192    3.1758    2.1383 C.3     1  VEB1       -0.0517
      3 H          -2.2866    3.6545    2.6669 H       1  VEB1        0.0241
      4 H1         -4.0265    3.4112    2.7094 H       1  VEB1        0.0241
      5 H2         -3.2153    3.6609    1.1595 H       1  VEB1        0.0241
      6 C2         -2.5763    1.1256    3.4318 C.3     1  VEB1       -0.0517
      7 H3         -1.6003    1.4988    3.7676 H       1  VEB1        0.0241
      8 H4         -2.5332    0.0302    3.4703 H       1  VEB1        0.0241
      9 H5         -3.3109    1.4584    4.1747 H       1  VEB1        0.0241
     10 C3         -1.6873    1.2625    1.1405 C.ar    1  VEB1       -0.0372
     11 C4         -0.6518    2.1789    0.8726 C.ar    1  VEB1       -0.0543
     12 C5          0.5439    1.7855    0.2493 C.ar    1  VEB1       -0.0197
     13 C6          0.7416    0.4599   -0.1222 C.ar    1  VEB1        0.1206
     14 C7         -0.2955   -0.4521    0.0793 C.ar    1  VEB1       -0.0197
     15 C8         -1.4889   -0.0618    0.7110 C.ar    1  VEB1       -0.0543
     16 C9         -4.2742    1.0997    1.4764 C.ar    1  VEB1       -0.0372
     17 C10        -4.6777    1.3434    0.1501 C.ar    1  VEB1       -0.0543
     18 C11        -5.9618    0.9886   -0.2997 C.ar    1  VEB1       -0.0197
     19 C12        -6.8843    0.4013    0.5655 C.ar    1  VEB1        0.1206
     20 C13        -6.4854    0.1028    1.8642 C.ar    1  VEB1       -0.0197
     21 C14        -5.2022    0.4520    2.3133 C.ar    1  VEB1       -0.0543
     22 H6         -4.0007    1.8357   -0.5460 H       1  VEB1        0.0622
     23 H7         -6.2460    1.1969   -1.3281 H       1  VEB1        0.0654
     24 H8         -7.1448   -0.4145    2.5533 H       1  VEB1        0.0654
     25 H9         -4.9636    0.2158    3.3468 H       1  VEB1        0.0622
     26 H10        -0.7303    3.2203    1.1730 H       1  VEB1        0.0622
     27 H11         1.3024    2.5423    0.0790 H       1  VEB1        0.0654
     28 H12        -0.1686   -1.4887   -0.2235 H       1  VEB1        0.0654
     29 H13        -2.2508   -0.8180    0.8939 H       1  VEB1        0.0622
     30 O           1.8849   -0.0384   -0.6941 O.3     1  VEB1       -0.4893
     31 O1         -8.1209    0.1020    0.0498 O.3     1  VEB1       -0.4893
     32 C15         3.1014    0.6757   -0.3974 C.3     1  VEB1        0.1186
     33 C16         4.3006   -0.1843   -0.8387 C.3     1  VEB1        0.1229
     34 H14         3.1631    0.8556    0.6835 H       1  VEB1        0.0724
     35 H15         3.1129    1.6253   -0.9438 H       1  VEB1        0.0724
     36 C17         5.6402    0.5102   -0.5236 C.3     1  VEB1        0.1186
     37 O2          4.2449   -1.4371   -0.1349 O.3     1  VEB1       -0.3850
     38 H16         4.2305   -0.4239   -1.9055 H       1  VEB1        0.0661
     39 H17         3.3482   -1.7906   -0.2879 H       1  VEB1        0.2101
     40 C18        -9.2230    0.3725    0.9367 C.3     1  VEB1        0.1186
     41 C19       -10.5580   -0.0102    0.2647 C.3     1  VEB1        0.1230
     42 H18        -9.2184    1.4434    1.1748 H       1  VEB1        0.0724
     43 H19        -9.1271   -0.2136    1.8566 H       1  VEB1        0.0724
     44 C20       -11.7405    0.5657    1.0563 C.3     1  VEB1        0.1215
     45 O3        -10.6774   -1.4421    0.2440 O.3     1  VEB1       -0.3850
     46 H20       -10.5853    0.3249   -0.7777 H       1  VEB1        0.0662
     47 H21       -11.5859   -1.6470   -0.0385 H       1  VEB1        0.2101
     48 O4        -12.9931    0.2400    0.4059 O.3     1  VEB1       -0.4617
     49 H22       -11.6501    1.6569    1.1179 H       1  VEB1        0.0725
     50 H23       -11.7488    0.1325    2.0641 H       1  VEB1        0.0725
     51 C21       -14.0781    0.7025    1.0874 C.2     1  VEB1        0.3097
     52 C22       -15.4308    0.4585    0.4019 C.3     1  VEB1        0.0508
     53 C23       -16.2636   -0.6218    1.1961 C.3     1  VEB1       -0.0525
     54 H25       -17.2575   -0.6253    0.7333 H       1  VEB1        0.0237
     55 H26       -16.4413   -0.2436    2.2145 H       1  VEB1        0.0237
     56 O5        -13.9837    1.2540    2.1817 O.2     1  VEB1       -0.2506
     57 C24       -16.2105    1.8037    0.6561 C.3     1  VEB1       -0.0525
     58 H28       -15.6774    2.6682    0.2470 H       1  VEB1        0.0237
     59 H29       -16.3474    1.9995    1.7268 H       1  VEB1        0.0237
     60 H30       -17.2118    1.7777    0.2101 H       1  VEB1        0.0237
     61 H31        12.7435   -1.3199    2.6473 H       1  VEB1        0.0241
     62 H32        10.9987   -1.3501    2.4634 H       1  VEB1        0.0241
     63 C25        11.9395   -1.2642    1.9049 C.3     1  VEB1       -0.0517
     64 H33        11.3827    1.2167    2.8535 H       1  VEB1        0.0241
     65 H34        12.0278   -2.1513    1.2662 H       1  VEB1        0.0241
     66 H35        13.1271    1.0956    2.6538 H       1  VEB1        0.0241
     67 C26        12.1833    1.2023    2.1042 C.3     1  VEB1       -0.0517
     68 H36        14.5424   -0.9980    1.5024 H       1  VEB1        0.0622
     69 C27        11.9868    0.0547    1.0776 C.3     1  VEB1        0.0151
     70 C28        14.4581   -0.4572    0.5635 C.ar    1  VEB1       -0.0543
     71 H37         9.9247    2.0008    1.2326 H       1  VEB1        0.0622
     72 H38        12.2112    2.1837    1.6152 H       1  VEB1        0.0241
     73 C29        10.6192    0.1367    0.3429 C.ar    1  VEB1       -0.0372
     74 C30         9.6820    1.1566    0.5929 C.ar    1  VEB1       -0.0543
     75 C31        13.2315    0.1082    0.1554 C.ar    1  VEB1       -0.0372
     76 H39        16.5293   -0.8227    0.1366 H       1  VEB1        0.0654
     77 C32        15.6222   -0.3330   -0.2046 C.ar    1  VEB1       -0.0197
     78 C33        10.2193   -0.8902   -0.5330 C.ar    1  VEB1       -0.0543
     79 C34         8.3788    1.1076    0.0694 C.ar    1  VEB1       -0.0197
     80 H40        10.9083   -1.6935   -0.7888 H       1  VEB1        0.0622
     81 H41         7.6985    1.9165    0.3144 H       1  VEB1        0.0654
     82 C35         8.9162   -0.9386   -1.0530 C.ar    1  VEB1       -0.0197
     83 C36         7.9747    0.0342   -0.7179 C.ar    1  VEB1        0.1206
     84 C37        13.2275    0.8050   -1.0654 C.ar    1  VEB1       -0.0543
     85 H42        17.7211    2.1205   -1.3898 H       1  VEB1        0.0724
     86 C38        15.6012    0.3894   -1.3910 C.ar    1  VEB1        0.1206
     87 H43         8.6254   -1.7692   -1.6919 H       1  VEB1        0.0654
     88 O6          6.7109   -0.1617   -1.2115 O.3     1  VEB1       -0.4893
     89 H44        12.3166    1.2715   -1.4350 H       1  VEB1        0.0622
     90 H45        18.0148    0.5730   -0.5508 H       1  VEB1        0.0724
     91 C39        17.8629    1.0423   -1.5285 C.3     1  VEB1        0.1186
     92 C40        14.3960    0.9285   -1.8363 C.ar    1  VEB1       -0.0197
     93 O7         16.6976    0.5272   -2.1998 O.3     1  VEB1       -0.4893
     94 O8         19.4027   -0.6283   -2.3763 O.3     1  VEB1       -0.3850
     95 H46        20.5388    1.2160   -0.8297 H       1  VEB1        0.0725
     96 C41        19.1047    0.7787   -2.3940 C.3     1  VEB1        0.1230
     97 H47        14.3616    1.4608   -2.7832 H       1  VEB1        0.0654
     98 H48        20.2000   -0.7429   -2.9250 H       1  VEB1        0.2101
     99 C42        20.3252    1.5351   -1.8572 C.3     1  VEB1        0.1215
    100 H49        18.9128    1.0439   -3.4398 H       1  VEB1        0.0662
    101 H50        20.1495    2.6163   -1.8870 H       1  VEB1        0.0725
    102 O9         21.4642    1.2136   -2.6824 O.3     1  VEB1       -0.4617
    103 H51        24.6563    0.0663   -1.5387 H       1  VEB1        0.0237
    104 O10        22.7433    2.5008   -1.2792 O.2     1  VEB1       -0.2506
    105 C43        22.6384    1.7495   -2.2397 C.2     1  VEB1        0.3097
    106 C44        24.9649    0.8531   -2.2357 C.3     1  VEB1       -0.0525
    107 H52        25.3572    1.6852   -1.6403 H       1  VEB1        0.0237
    108 C45        23.7938    1.2927   -3.1099 C.3     1  VEB1        0.0508
    109 H53        23.4696    0.4253   -3.6981 H       1  VEB1        0.0408
    110 H54        25.7831    0.4614   -2.8492 H       1  VEB1        0.0237
    111 C46        24.1988    2.4154   -4.0560 C.3     1  VEB1       -0.0525
    112 H55        24.5353    3.3006   -3.5047 H       1  VEB1        0.0237
    113 H56        23.3543    2.7198   -4.6833 H       1  VEB1        0.0237
    114 H57        25.0134    2.0955   -4.7144 H       1  VEB1        0.0237
    115 H58         5.8057    0.4769    0.5608 H       1  VEB1        0.0724
    116 H59         5.6138    1.5496   -0.8699 H       1  VEB1        0.0724
    117 C         -15.3637   -1.1182   -1.7493 C.ar    1  CRO01      -0.0476
    118 C1        -16.5543   -1.7386   -2.1725 C.ar    1  CRO01      -0.0586
    119 C2        -16.5517   -3.0411   -2.6738 C.ar    1  CRO01      -0.0615
    120 C3        -15.3548   -3.7413   -2.7754 C.ar    1  CRO01      -0.0617
    121 C4        -14.1615   -3.1320   -2.3933 C.ar    1  CRO01      -0.0615
    122 C5        -14.1639   -1.8268   -1.8916 C.ar    1  CRO01      -0.0586
    123 C6        -15.4278    0.2892   -1.1754 C.3     1  CRO01      -0.0305
    124 C7        -14.4751    1.2309   -1.9411 C.3     1  CRO01      -0.0613
    125 H1        -16.4200    0.6476   -1.4931 H       1  CRO01       0.0311
    126 H2        -13.4246    0.9402   -1.8610 H       1  CRO01       0.0233
    127 H3        -14.5638    2.2661   -1.6019 H       1  CRO01       0.0233
    128 H4        -14.7177    1.2219   -3.0111 H       1  CRO01       0.0233
    129 H5        -13.2169   -1.3787   -1.6123 H       1  CRO01       0.0620
    130 H6        -15.3517   -4.7596   -3.1551 H       1  CRO01       0.0618
    131 H7        -13.2255   -3.6778   -2.4834 H       1  CRO01       0.0618
    132 H8        -17.5055   -1.2142   -2.1009 H       1  CRO01       0.0620
    133 H9        -17.4848   -3.5100   -2.9755 H       1  CRO01       0.0618
    134 C         -16.8939   -3.0671    1.7076 C.ar    1  CRO11      -0.0476
    135 C1        -18.0431   -3.1207    0.8962 C.ar    1  CRO11      -0.0586
    136 C2        -19.0706   -4.0401    1.1314 C.ar    1  CRO11      -0.0615
    137 C3        -18.9646   -4.9502    2.1750 C.ar    1  CRO11      -0.0617
    138 C4        -17.8354   -4.9319    2.9851 C.ar    1  CRO11      -0.0615
    139 C5        -16.8157   -3.9995    2.7568 C.ar    1  CRO11      -0.0586
    140 C6        -15.7509   -2.0877    1.3633 C.3     1  CRO11      -0.0305
    141 C7        -14.5862   -2.1625    2.3638 C.3     1  CRO11      -0.0613
    142 H1        -15.3543   -2.4579    0.4197 H       1  CRO11       0.0311
    143 H2        -14.8925   -1.8294    3.3618 H       1  CRO11       0.0233
    144 H3        -13.7350   -1.5599    2.0535 H       1  CRO11       0.0233
    145 H4        -14.1975   -3.1837    2.4459 H       1  CRO11       0.0233
    146 H5        -15.9547   -4.0422    3.4174 H       1  CRO11       0.0620
    147 H6        -19.7532   -5.6761    2.3512 H       1  CRO11       0.0618
    148 H7        -17.7376   -5.6511    3.7943 H       1  CRO11       0.0618
    149 H8        -18.1553   -2.4517    0.0492 H       1  CRO11       0.0620
    150 H9        -19.9462   -4.0504    0.4878 H       1  CRO11       0.0618
@<TRIPOS>BOND
     1   113   111    1
     2   114   111    1
     3   111   112    1
     4   111   108    1
     5   109   108    1
     6   100    96    1
     7   108   105    1
     8   108   106    1
     9    98    94    1
    10    97    92    1
    11   110   106    1
    12   102   105    1
    13   102    99    1
    14    94    96    1
    15    96    99    1
    16    96    91    1
    17   105   104    2
    18   106   107    1
    19   106   103    1
    20    93    91    1
    21    93    86    1
    22   101    99    1
    23    38    33    1
    24    92    86   ar
    25    92    84   ar
    26    99    95    1
    27    87    82    1
    28    89    84    1
    29    91    85    1
    30    91    90    1
    31    86    77   ar
    32    88    83    1
    33    88    36    1
    34    23    18    1
    35    82    83   ar
    36    82    78   ar
    37    84    75   ar
    38    35    32    1
    39    33    36    1
    40    33    32    1
    41    33    37    1
    42    83    79   ar
    43    80    78    1
    44   116    36    1
    45    30    32    1
    46    30    13    1
    47    78    73   ar
    48    36   115    1
    49    58    57    1
    50    46    41    1
    51    32    34    1
    52    22    17    1
    53    39    37    1
    54    18    17   ar
    55    18    19   ar
    56    13    12   ar
    57    13    14   ar
    58    27    12    1
    59    60    57    1
    60    79    81    1
    61    79    74   ar
    62    28    14    1
    63    77    76    1
    64    77    70   ar
    65    75    70   ar
    66    75    69    1
    67    12    11   ar
    68    14    15   ar
    69    73    74   ar
    70    73    69    1
    71    17    16   ar
    72    57    52    1
    73    57    59    1
    74    31    19    1
    75    31    40    1
    76    74    71    1
    77    41    45    1
    78    41    40    1
    79    41    44    1
    80    19    20   ar
    81    70    68    1
    82    47    45    1
    83    11    26    1
    84    11    10   ar
    85    15    29    1
    86    15    10   ar
    87    48    44    1
    88    48    51    1
    89    52    51    1
    90    52    53    1
    91    69    63    1
    92    69    67    1
    93    65    63    1
    94    49    44    1
    95     5     2    1
    96    10     1    1
    97    40    42    1
    98    40    43    1
    99    44    50    1
   100    51    56    2
   101    16     1    1
   102    16    21   ar
   103    72    67    1
   104    63    62    1
   105    63    61    1
   106    54    53    1
   107    20    21   ar
   108    20    24    1
   109     1     2    1
   110     1     6    1
   111    53    55    1
   112    67    66    1
   113    67    64    1
   114     2     3    1
   115     2     4    1
   116    21    25    1
   117     6     8    1
   118     6     7    1
   119     6     9    1
   120   125   123    1
   121   128   124    1
   122   132   118    1
   123   118   117   ar
   124   118   119   ar
   125   123   117    1
   126   123   124    1
   127   127   124    1
   128   133   119    1
   129   117   122   ar
   130   119   120   ar
   131   124   126    1
   132   120   130    1
   133   120   121   ar
   134   122   121   ar
   135   122   129    1
   136   121   131    1
   137   142   140    1
   138   145   141    1
   139   149   135    1
   140   135   134   ar
   141   135   136   ar
   142   140   134    1
   143   140   141    1
   144   144   141    1
   145   150   136    1
   146   134   139   ar
   147   136   137   ar
   148   141   143    1
   149   137   147    1
   150   137   138   ar
   151   139   138   ar
   152   139   146    1
   153   138   148    1
   154   123    52    1
   155   140    53    1
