@<TRIPOS>MOLECULE
*****
 134 138 0 0 0
SMALL
GASTEIGER

@<TRIPOS>ATOM
      1 C          -4.6016    1.3614    2.0081 C.3     1  VEB1        0.0151
      2 C1         -4.7962    2.8977    2.1429 C.3     1  VEB1       -0.0517
      3 H          -3.9444    3.3767    2.6396 H       1  VEB1        0.0241
      4 H1         -5.6835    3.1339    2.7444 H       1  VEB1        0.0241
      5 H2         -4.9256    3.3832    1.1681 H       1  VEB1        0.0241
      6 C2         -4.2104    0.8557    3.4233 C.3     1  VEB1       -0.0517
      7 H3         -3.2374    1.2568    3.7343 H       1  VEB1        0.0241
      8 H4         -4.1334   -0.2378    3.4616 H       1  VEB1        0.0241
      9 H5         -4.9385    1.1670    4.1819 H       1  VEB1        0.0241
     10 C3         -3.4140    0.9744    1.0927 C.ar    1  VEB1       -0.0372
     11 C4         -2.4015    1.8902    0.7540 C.ar    1  VEB1       -0.0543
     12 C5         -1.2505    1.4900    0.0603 C.ar    1  VEB1       -0.0197
     13 C6         -1.0767    0.1590   -0.3071 C.ar    1  VEB1        0.1206
     14 C7         -2.0954   -0.7531   -0.0359 C.ar    1  VEB1       -0.0197
     15 C8         -3.2443   -0.3553    0.6642 C.ar    1  VEB1       -0.0543
     16 C9         -5.9663    0.8144    1.5200 C.ar    1  VEB1       -0.0372
     17 C10        -6.4402    1.1391    0.2330 C.ar    1  VEB1       -0.0543
     18 C11        -7.7322    0.7846   -0.1765 C.ar    1  VEB1       -0.0197
     19 C12        -8.5815    0.1116    0.6960 C.ar    1  VEB1        0.1206
     20 C13        -8.1097   -0.2893    1.9412 C.ar    1  VEB1       -0.0197
     21 C14        -6.8191    0.0648    2.3509 C.ar    1  VEB1       -0.0543
     22 H6         -5.8110    1.6976   -0.4578 H       1  VEB1        0.0622
     23 H7         -8.0814    1.0606   -1.1675 H       1  VEB1        0.0654
     24 H8         -8.7314   -0.8791    2.6081 H       1  VEB1        0.0654
     25 H9         -6.5136   -0.2465    3.3459 H       1  VEB1        0.0622
     26 H10        -2.4648    2.9346    1.0467 H       1  VEB1        0.0622
     27 H11        -0.5050    2.2440   -0.1692 H       1  VEB1        0.0654
     28 H12        -1.9868   -1.7919   -0.3372 H       1  VEB1        0.0654
     29 H13        -3.9961   -1.1079    0.8973 H       1  VEB1        0.0622
     30 O           0.0335   -0.3401   -0.9393 O.3     1  VEB1       -0.4893
     31 O1         -9.8489   -0.1700    0.2592 O.3     1  VEB1       -0.4893
     32 C15         1.2630    0.3467   -0.6417 C.3     1  VEB1        0.1186
     33 C16         2.4438   -0.5300   -1.0890 C.3     1  VEB1        0.1229
     34 H14         1.3339    0.5200    0.4402 H       1  VEB1        0.0724
     35 H15         1.2905    1.2997   -1.1818 H       1  VEB1        0.0724
     36 C17         3.7829    0.1492   -0.7535 C.3     1  VEB1        0.1186
     37 O2          2.3663   -1.7885   -0.3986 O.3     1  VEB1       -0.3850
     38 H16         2.3770   -0.7558   -2.1590 H       1  VEB1        0.0661
     39 H17         1.4636   -2.1248   -0.5548 H       1  VEB1        0.2101
     40 C18       -10.8604    0.3067    1.1680 C.3     1  VEB1        0.1186
     41 C19       -12.2441    0.0759    0.5475 C.3     1  VEB1        0.1230
     42 H18       -10.7044    1.3789    1.3416 H       1  VEB1        0.0724
     43 H19       -10.8015   -0.2377    2.1173 H       1  VEB1        0.0724
     44 C20       -13.3281    0.8520    1.3028 C.3     1  VEB1        0.1215
     45 O3        -12.5639   -1.3250    0.6073 O.3     1  VEB1       -0.3850
     46 H20       -12.2427    0.3489   -0.5138 H       1  VEB1        0.0662
     47 H21       -13.4559   -1.4165    0.2264 H       1  VEB1        0.2101
     48 O4        -14.5879    0.6057    0.6472 O.3     1  VEB1       -0.4617
     49 H22       -13.1146    1.9266    1.2852 H       1  VEB1        0.0725
     50 H23       -13.3970    0.4956    2.3376 H       1  VEB1        0.0725
     51 C21       -15.6621    1.2048    1.2411 C.2     1  VEB1        0.3097
     52 C22       -16.9359    0.8189    0.5034 C.3     1  VEB1        0.0508
     53 C23       -17.3211   -0.6189    0.8970 C.3     1  VEB1       -0.0525
     54 H25       -17.5923   -0.6375    1.9624 H       1  VEB1        0.0237
     55 H26       -16.4251   -1.2469    0.8173 H       1  VEB1        0.0237
     56 O5        -15.6010    1.9287    2.2241 O.2     1  VEB1       -0.2506
     57 C24       -18.0457    1.8285    0.7878 C.3     1  VEB1       -0.0525
     58 H27       -16.7005    0.8803   -0.5656 H       1  VEB1        0.0408
     59 H28       -17.7050    2.8489    0.5789 H       1  VEB1        0.0237
     60 H29       -18.3587    1.7945    1.8371 H       1  VEB1        0.0237
     61 H30       -18.9239    1.6403    0.1628 H       1  VEB1        0.0237
     62 H31        10.8425   -1.6544    2.5594 H       1  VEB1        0.0241
     63 H32         9.0960   -1.6874    2.3826 H       1  VEB1        0.0241
     64 C25        10.0350   -1.6110    1.8198 C.3     1  VEB1       -0.0517
     65 H33         9.4707    0.8787    2.7319 H       1  VEB1        0.0241
     66 H34        10.1200   -2.5082    1.1951 H       1  VEB1        0.0241
     67 H35        11.2166    0.7605    2.5328 H       1  VEB1        0.0241
     68 C26        10.2717    0.8571    1.9832 C.3     1  VEB1       -0.0517
     69 H36        12.6202   -1.4317    1.3366 H       1  VEB1        0.0622
     70 C27        10.0799   -0.3053    0.9731 C.3     1  VEB1        0.0151
     71 C28        12.5347   -0.8599    0.4165 C.ar    1  VEB1       -0.0543
     72 H37         8.0152    1.6376    1.0848 H       1  VEB1        0.0622
     73 H38        10.2956    1.8324    1.4819 H       1  VEB1        0.0241
     74 C29         8.7192   -0.2384    0.2288 C.ar    1  VEB1       -0.0372
     75 C30         7.7831    0.7879    0.4485 C.ar    1  VEB1       -0.0543
     76 C31        11.3176   -0.2545    0.0434 C.ar    1  VEB1       -0.0372
     77 H39        14.5925   -1.2529   -0.0597 H       1  VEB1        0.0654
     78 C32        13.6874   -0.7377   -0.3678 C.ar    1  VEB1       -0.0197
     79 C33         8.3367   -1.2743   -0.6449 C.ar    1  VEB1       -0.0543
     80 C34         6.4964    0.7411   -0.1097 C.ar    1  VEB1       -0.0197
     81 H40         9.0297   -2.0810   -0.8778 H       1  VEB1        0.0622
     82 H41         5.8153    1.5571    0.1076 H       1  VEB1        0.0654
     83 C35         7.0493   -1.3216   -1.1984 C.ar    1  VEB1       -0.0197
     84 C36         6.1085   -0.3381   -0.8985 C.ar    1  VEB1        0.1206
     85 C37        11.3090    0.4799   -1.1567 C.ar    1  VEB1       -0.0543
     86 H42        15.7540    1.7798   -1.5747 H       1  VEB1        0.0724
     87 C38        13.6612    0.0214   -1.5317 C.ar    1  VEB1        0.1206
     88 H43         6.7698   -2.1558   -1.8373 H       1  VEB1        0.0654
     89 O6          4.8575   -0.5282   -1.4250 O.3     1  VEB1       -0.4893
     90 H44        10.4022    0.9759   -1.4969 H       1  VEB1        0.0622
     91 H45        16.0505    0.2591   -0.6889 H       1  VEB1        0.0724
     92 C39        15.9052    0.6991   -1.6816 C.3     1  VEB1        0.1186
     93 C40        12.4647    0.6012   -1.9433 C.ar    1  VEB1       -0.0197
     94 O7         14.7508    0.1565   -2.3488 O.3     1  VEB1       -0.4893
     95 O8         17.4565   -0.9847   -2.4776 O.3     1  VEB1       -0.3850
     96 H46        18.5794    0.8948   -0.9721 H       1  VEB1        0.0725
     97 C41        17.1527    0.4201   -2.5312 C.3     1  VEB1        0.1230
     98 H47        12.4276    1.1617   -2.8733 H       1  VEB1        0.0654
     99 H48        18.2530   -1.1101   -3.0250 H       1  VEB1        0.2101
    100 C42        18.3648    1.1950   -2.0051 C.3     1  VEB1        0.1215
    101 H49        16.9661    0.6589   -3.5844 H       1  VEB1        0.0662
    102 H50        18.1812    2.2742   -2.0536 H       1  VEB1        0.0725
    103 O9         19.5051    0.8681   -2.8252 O.3     1  VEB1       -0.4617
    104 H51        22.6965   -0.2679   -1.6886 H       1  VEB1        0.0237
    105 O10        20.7800    2.1712   -1.4334 O.2     1  VEB1       -0.2506
    106 C43        20.6768    1.4129   -2.3879 C.2     1  VEB1        0.3097
    107 C44        23.0034    0.5194   -2.3857 C.3     1  VEB1       -0.0525
    108 H52        23.3943    1.3523   -1.7906 H       1  VEB1        0.0237
    109 C45        21.8312    0.9564   -3.2591 C.3     1  VEB1        0.0508
    110 H53        21.5073    0.0881   -3.8460 H       1  VEB1        0.0408
    111 H54        23.8218    0.1291   -2.9998 H       1  VEB1        0.0237
    112 C46        22.2313    2.0791   -4.2071 C.3     1  VEB1       -0.0525
    113 H55        22.5670    2.9655   -3.6574 H       1  VEB1        0.0237
    114 H56        21.3843    2.3811   -4.8323 H       1  VEB1        0.0237
    115 H57        23.0446    1.7604   -4.8675 H       1  VEB1        0.0237
    116 H58         3.9294    0.1116    0.3338 H       1  VEB1        0.0724
    117 H59         3.7701    1.1901   -1.0964 H       1  VEB1        0.0724
    118 C         -18.7878   -2.6677    0.5439 C.ar    1  CRO01      -0.0476
    119 C1        -20.1168   -3.0257    0.8203 C.ar    1  CRO01      -0.0586
    120 C2        -20.4397   -4.3268    1.2132 C.ar    1  CRO01      -0.0615
    121 C3        -19.4399   -5.2884    1.3365 C.ar    1  CRO01      -0.0617
    122 C4        -18.1176   -4.9513    1.0613 C.ar    1  CRO01      -0.0615
    123 C5        -17.7943   -3.6530    0.6612 C.ar    1  CRO01      -0.0586
    124 C6        -18.4690   -1.2519    0.0762 C.3     1  CRO01      -0.0305
    125 C7        -18.1818   -1.2691   -1.4287 C.3     1  CRO01      -0.0613
    126 H1        -19.3660   -0.6395    0.2345 H       1  CRO01       0.0311
    127 H2        -17.2268   -1.7582   -1.6500 H       1  CRO01       0.0233
    128 H3        -18.1458   -0.2545   -1.8370 H       1  CRO01       0.0233
    129 H4        -18.9658   -1.8067   -1.9744 H       1  CRO01       0.0233
    130 H5        -16.7559   -3.4274    0.4330 H       1  CRO01       0.0620
    131 H6        -19.6913   -6.3008    1.6409 H       1  CRO01       0.0618
    132 H7        -17.3357   -5.7011    1.1510 H       1  CRO01       0.0618
    133 H8        -20.9166   -2.2948    0.7225 H       1  CRO01       0.0620
    134 H9        -21.4739   -4.5909    1.4184 H       1  CRO01       0.0618
@<TRIPOS>BOND
     1   114   112    1
     2   115   112    1
     3   112   113    1
     4   112   109    1
     5   110   109    1
     6   101    97    1
     7   109   106    1
     8   109   107    1
     9    99    95    1
    10    98    93    1
    11   111   107    1
    12   103   106    1
    13   103   100    1
    14    95    97    1
    15    97   100    1
    16    97    92    1
    17   106   105    2
    18   107   108    1
    19   107   104    1
    20    94    92    1
    21    94    87    1
    22   102   100    1
    23    38    33    1
    24    93    87   ar
    25    93    85   ar
    26   100    96    1
    27    88    83    1
    28    90    85    1
    29    92    86    1
    30    92    91    1
    31    87    78   ar
    32    89    84    1
    33    89    36    1
    34    23    18    1
    35    83    84   ar
    36    83    79   ar
    37    85    76   ar
    38    35    32    1
    39    33    36    1
    40    33    32    1
    41    33    37    1
    42    84    80   ar
    43    81    79    1
    44   117    36    1
    45    30    32    1
    46    30    13    1
    47    79    74   ar
    48    36   116    1
    49    59    57    1
    50    46    41    1
    51    32    34    1
    52    22    17    1
    53    39    37    1
    54    18    17   ar
    55    18    19   ar
    56    13    12   ar
    57    13    14   ar
    58    27    12    1
    59    61    57    1
    60    80    82    1
    61    80    75   ar
    62    28    14    1
    63    78    77    1
    64    78    71   ar
    65    76    71   ar
    66    76    70    1
    67    12    11   ar
    68    14    15   ar
    69    58    52    1
    70    74    75   ar
    71    74    70    1
    72    17    16   ar
    73    57    52    1
    74    57    60    1
    75    31    19    1
    76    31    40    1
    77    75    72    1
    78    41    45    1
    79    41    40    1
    80    41    44    1
    81    19    20   ar
    82    71    69    1
    83    47    45    1
    84    11    26    1
    85    11    10   ar
    86    15    29    1
    87    15    10   ar
    88    48    44    1
    89    48    51    1
    90    52    51    1
    91    52    53    1
    92    70    64    1
    93    70    68    1
    94    66    64    1
    95    49    44    1
    96     5     2    1
    97    10     1    1
    98    40    42    1
    99    40    43    1
   100    44    50    1
   101    51    56    2
   102    16     1    1
   103    16    21   ar
   104    73    68    1
   105    64    63    1
   106    64    62    1
   107    54    53    1
   108    20    21   ar
   109    20    24    1
   110     1     2    1
   111     1     6    1
   112    53    55    1
   113    68    67    1
   114    68    65    1
   115     2     3    1
   116     2     4    1
   117    21    25    1
   118     6     8    1
   119     6     7    1
   120     6     9    1
   121   126   124    1
   122   129   125    1
   123   133   119    1
   124   119   118   ar
   125   119   120   ar
   126   124   118    1
   127   124   125    1
   128   128   125    1
   129   134   120    1
   130   118   123   ar
   131   120   121   ar
   132   125   127    1
   133   121   131    1
   134   121   122   ar
   135   123   122   ar
   136   123   130    1
   137   122   132    1
   138   124    53    1
