@<TRIPOS>MOLECULE
*****
 134 138 0 0 0
SMALL
GASTEIGER

@<TRIPOS>ATOM
      1 C          -4.8909    1.2092    2.0303 C.3     1  VEB1        0.0151
      2 C1         -5.1226    2.7431    2.1321 C.3     1  VEB1       -0.0517
      3 H          -4.2992    3.2493    2.6498 H       1  VEB1        0.0241
      4 H1         -6.0341    2.9698    2.6999 H       1  VEB1        0.0241
      5 H2         -5.2272    3.2097    1.1454 H       1  VEB1        0.0241
      6 C2         -4.5192    0.7394    3.4637 C.3     1  VEB1       -0.0517
      7 H3         -3.5677    1.1765    3.7926 H       1  VEB1        0.0241
      8 H4         -4.4067   -0.3501    3.5215 H       1  VEB1        0.0241
      9 H5         -5.2762    1.0387    4.1985 H       1  VEB1        0.0241
     10 C3         -3.6685    0.8372    1.1529 C.ar    1  VEB1       -0.0372
     11 C4         -2.6425    1.7588    0.8711 C.ar    1  VEB1       -0.0543
     12 C5         -1.4617    1.3724    0.2182 C.ar    1  VEB1       -0.0197
     13 C6         -1.2706    0.0490   -0.1660 C.ar    1  VEB1        0.1206
     14 C7         -2.2975   -0.8687    0.0539 C.ar    1  VEB1       -0.0197
     15 C8         -3.4755   -0.4853    0.7143 C.ar    1  VEB1       -0.0543
     16 C9         -6.2331    0.6167    1.5248 C.ar    1  VEB1       -0.0372
     17 C10        -6.7093    0.9285    0.2346 C.ar    1  VEB1       -0.0543
     18 C11        -7.9845    0.5246   -0.1911 C.ar    1  VEB1       -0.0197
     19 C12        -8.8134   -0.1899    0.6680 C.ar    1  VEB1        0.1206
     20 C13        -8.3361   -0.5778    1.9155 C.ar    1  VEB1       -0.0197
     21 C14        -7.0657   -0.1707    2.3423 C.ar    1  VEB1       -0.0543
     22 H6         -6.0948    1.5137   -0.4477 H       1  VEB1        0.0622
     23 H7         -8.3328    0.7911   -1.1849 H       1  VEB1        0.0654
     24 H8         -8.9458   -1.1942    2.5703 H       1  VEB1        0.0654
     25 H9         -6.7603   -0.4734    3.3400 H       1  VEB1        0.0622
     26 H10        -2.7186    2.7978    1.1801 H       1  VEB1        0.0622
     27 H11        -0.7091    2.1316    0.0334 H       1  VEB1        0.0654
     28 H12        -2.1742   -1.9029   -0.2580 H       1  VEB1        0.0654
     29 H13        -4.2311   -1.2449    0.9084 H       1  VEB1        0.0622
     30 O          -0.1401   -0.4409   -0.7684 O.3     1  VEB1       -0.4893
     31 O1        -10.0670   -0.5418    0.2336 O.3     1  VEB1       -0.4893
     32 C15         1.0797    0.2607   -0.4632 C.3     1  VEB1        0.1186
     33 C16         2.2713   -0.6046   -0.9083 C.3     1  VEB1        0.1229
     34 H14         1.1424    0.4318    0.6193 H       1  VEB1        0.0724
     35 H15         1.0991    1.2149   -1.0015 H       1  VEB1        0.0724
     36 C17         3.6085    0.0814   -0.5752 C.3     1  VEB1        0.1186
     37 O2          2.2033   -1.8639   -0.2176 O.3     1  VEB1       -0.3850
     38 H16         2.2063   -0.8321   -1.9781 H       1  VEB1        0.0661
     39 H17         1.3040   -2.2080   -0.3761 H       1  VEB1        0.2101
     40 C18       -11.0931    0.0535    1.0525 C.3     1  VEB1        0.1186
     41 C19       -12.4857   -0.4554    0.6321 C.3     1  VEB1        0.1230
     42 H18       -11.0406    1.1421    0.9246 H       1  VEB1        0.0724
     43 H19       -10.9378   -0.1950    2.1091 H       1  VEB1        0.0724
     44 C20       -13.5731    0.4052    1.2897 C.3     1  VEB1        0.1215
     45 O3        -12.6433   -1.8149    1.0648 O.3     1  VEB1       -0.3850
     46 H20       -12.5917   -0.4539   -0.4582 H       1  VEB1        0.0662
     47 H21       -13.5722   -2.0554    0.9028 H       1  VEB1        0.2101
     48 O4        -14.8918   -0.0140    0.8678 O.3     1  VEB1       -0.4617
     49 H22       -13.4102    1.4538    1.0125 H       1  VEB1        0.0725
     50 H23       -13.5262    0.2951    2.3799 H       1  VEB1        0.0725
     51 C21       -15.8580    0.8895    1.1983 C.2     1  VEB1        0.3097
     52 C22       -17.2867    0.4780    0.8086 C.3     1  VEB1        0.0508
     53 C23       -17.8815   -0.2444    2.0351 C.3     1  VEB1       -0.0525
     54 H24       -17.3333   -1.1632    2.2699 H       1  VEB1        0.0237
     55 H25       -18.9370   -0.4946    1.8820 H       1  VEB1        0.0237
     56 H26       -17.8249    0.3856    2.9315 H       1  VEB1        0.0237
     57 O5        -15.6143    1.9228    1.8175 O.2     1  VEB1       -0.2506
     58 C24       -18.0867    1.8027    0.6407 C.3     1  VEB1       -0.0525
     59 H28       -17.6663    2.4239   -0.1579 H       1  VEB1        0.0237
     60 H29       -18.0745    2.4047    1.5573 H       1  VEB1        0.0237
     61 H30       -19.1389    1.6076    0.4033 H       1  VEB1        0.0237
     62 H31        10.6927   -1.7114    2.6925 H       1  VEB1        0.0241
     63 H32         8.9444   -1.7323    2.5306 H       1  VEB1        0.0241
     64 C25         9.8792   -1.6669    1.9594 C.3     1  VEB1       -0.0517
     65 H33         9.3418    0.8276    2.8635 H       1  VEB1        0.0241
     66 H34         9.9515   -2.5689    1.3398 H       1  VEB1        0.0241
     67 H35        11.0848    0.7047    2.6434 H       1  VEB1        0.0241
     68 C26        10.1333    0.8003    2.1050 C.3     1  VEB1       -0.0517
     69 H36        12.4500   -1.5511    1.4298 H       1  VEB1        0.0622
     70 C27         9.9272   -0.3674    1.1037 C.3     1  VEB1        0.0151
     71 C28        12.3686   -0.9608    0.5213 C.ar    1  VEB1       -0.0543
     72 H37         7.8565    1.5678    1.2457 H       1  VEB1        0.0622
     73 H38        10.1524    1.7728    1.5981 H       1  VEB1        0.0241
     74 C29         8.5613   -0.2981    0.3685 C.ar    1  VEB1       -0.0372
     75 C30         7.6222    0.7222    0.6047 C.ar    1  VEB1       -0.0543
     76 C31        11.1599   -0.3279    0.1663 C.ar    1  VEB1       -0.0372
     77 H39        14.4195   -1.3747    0.0275 H       1  VEB1        0.0654
     78 C32        13.5198   -0.8415   -0.2660 C.ar    1  VEB1       -0.0197
     79 C33         8.1743   -1.3295   -0.5081 C.ar    1  VEB1       -0.0543
     80 C34         6.3296    0.6740    0.0589 C.ar    1  VEB1       -0.0197
     81 H40         8.8678   -2.1327   -0.7517 H       1  VEB1        0.0622
     82 H41         5.6470    1.4852    0.2892 H       1  VEB1        0.0654
     83 C35         6.8812   -1.3779   -1.0494 C.ar    1  VEB1       -0.0197
     84 C36         5.9383   -0.4006   -0.7341 C.ar    1  VEB1        0.1206
     85 C37        11.1572    0.4276   -1.0209 C.ar    1  VEB1       -0.0543
     86 H42        15.5971    1.6956   -1.4545 H       1  VEB1        0.0724
     87 C38        13.5005   -0.0592   -1.4145 C.ar    1  VEB1        0.1206
     88 H43         6.5992   -2.2092   -1.6912 H       1  VEB1        0.0654
     89 O6          4.6837   -0.5922   -1.2513 O.3     1  VEB1       -0.4893
     90 H44        10.2564    0.9442   -1.3463 H       1  VEB1        0.0622
     91 H45        15.8806    0.1764   -0.5618 H       1  VEB1        0.0724
     92 C39        15.7445    0.6140   -1.5571 C.3     1  VEB1        0.1186
     93 C40        12.3113    0.5460   -1.8105 C.ar    1  VEB1       -0.0197
     94 O7         14.5914    0.0748   -2.2303 O.3     1  VEB1       -0.4893
     95 O8         17.2969   -1.0775   -2.3354 O.3     1  VEB1       -0.3850
     96 H46        18.4206    0.8028   -0.8359 H       1  VEB1        0.0725
     97 C41        16.9966    0.3277   -2.3979 C.3     1  VEB1        0.1230
     98 H47        12.2792    1.1246   -2.7294 H       1  VEB1        0.0654
     99 H48        18.0962   -1.2076   -2.8775 H       1  VEB1        0.2101
    100 C42        18.2080    1.1025   -1.8693 C.3     1  VEB1        0.1215
    101 H49        16.8166    0.5614   -3.4533 H       1  VEB1        0.0662
    102 H50        18.0248    2.1817   -1.9190 H       1  VEB1        0.0725
    103 O9         19.3503    0.7752   -2.6869 O.3     1  VEB1       -0.4617
    104 H51        22.5481   -0.3497   -1.5588 H       1  VEB1        0.0237
    105 O10        20.6210    2.0849   -1.2973 O.2     1  VEB1       -0.2506
    106 C43        20.5201    1.3256   -2.2515 C.2     1  VEB1        0.3097
    107 C44        22.8507    0.4412   -2.2538 C.3     1  VEB1       -0.0525
    108 H52        23.2384    1.2740   -1.6565 H       1  VEB1        0.0237
    109 C45        21.6756    0.8756   -3.1247 C.3     1  VEB1        0.0508
    110 H53        21.3546    0.0077   -3.7138 H       1  VEB1        0.0408
    111 H54        23.6702    0.0565   -2.8699 H       1  VEB1        0.0237
    112 C46        22.0707    2.0024   -4.0701 C.3     1  VEB1       -0.0525
    113 H55        22.4041    2.8885   -3.5183 H       1  VEB1        0.0237
    114 H56        21.2218    2.3033   -4.6934 H       1  VEB1        0.0237
    115 H57        22.8842    1.6885   -4.7325 H       1  VEB1        0.0237
    116 H58         3.7591    0.0436    0.5113 H       1  VEB1        0.0724
    117 H59         3.5905    1.1223   -0.9178 H       1  VEB1        0.0724
    118 C         -17.5502   -1.8487   -0.3918 C.ar    1  CRO01      -0.0476
    119 C1        -18.8213   -2.4529   -0.3363 C.ar    1  CRO01      -0.0586
    120 C2        -18.9587   -3.8338   -0.1890 C.ar    1  CRO01      -0.0615
    121 C3        -17.8266   -4.6358   -0.0937 C.ar    1  CRO01      -0.0617
    122 C4        -16.5608   -4.0564   -0.1532 C.ar    1  CRO01      -0.0615
    123 C5        -16.4233   -2.6733   -0.3054 C.ar    1  CRO01      -0.0586
    124 C6        -17.4565   -0.3322   -0.5307 C.3     1  CRO01      -0.0305
    125 C7        -16.5130    0.0950   -1.6678 C.3     1  CRO01      -0.0613
    126 H1        -18.4469   -0.0486   -0.9209 H       1  CRO01       0.0311
    127 H2        -15.4784   -0.2197   -1.5095 H       1  CRO01       0.0233
    128 H3        -16.5190    1.1811   -1.8009 H       1  CRO01       0.0233
    129 H4        -16.8362   -0.3526   -2.6154 H       1  CRO01       0.0233
    130 H5        -15.4248   -2.2552   -0.3632 H       1  CRO01       0.0620
    131 H6        -17.9303   -5.7113    0.0227 H       1  CRO01       0.0618
    132 H7        -15.6767   -4.6855   -0.0843 H       1  CRO01       0.0618
    133 H8        -19.7232   -1.8470   -0.4040 H       1  CRO01       0.0620
    134 H9        -19.9489   -4.2803   -0.1481 H       1  CRO01       0.0618
@<TRIPOS>BOND
     1   114   112    1
     2   115   112    1
     3   112   113    1
     4   112   109    1
     5   110   109    1
     6   101    97    1
     7   109   106    1
     8   109   107    1
     9    99    95    1
    10    98    93    1
    11   111   107    1
    12   103   106    1
    13   103   100    1
    14    95    97    1
    15    97   100    1
    16    97    92    1
    17   106   105    2
    18   107   108    1
    19   107   104    1
    20    94    92    1
    21    94    87    1
    22   102   100    1
    23    38    33    1
    24    93    87   ar
    25    93    85   ar
    26   100    96    1
    27    88    83    1
    28    90    85    1
    29    92    86    1
    30    92    91    1
    31    87    78   ar
    32    89    84    1
    33    89    36    1
    34    23    18    1
    35    83    84   ar
    36    83    79   ar
    37    85    76   ar
    38    35    32    1
    39    33    36    1
    40    33    32    1
    41    33    37    1
    42    84    80   ar
    43    81    79    1
    44   117    36    1
    45    30    32    1
    46    30    13    1
    47    79    74   ar
    48    36   116    1
    49    59    58    1
    50    46    41    1
    51    32    34    1
    52    22    17    1
    53    39    37    1
    54    18    17   ar
    55    18    19   ar
    56    13    12   ar
    57    13    14   ar
    58    27    12    1
    59    61    58    1
    60    80    82    1
    61    80    75   ar
    62    28    14    1
    63    78    77    1
    64    78    71   ar
    65    76    71   ar
    66    76    70    1
    67    12    11   ar
    68    14    15   ar
    69    74    75   ar
    70    74    70    1
    71    17    16   ar
    72    58    52    1
    73    58    60    1
    74    31    19    1
    75    31    40    1
    76    75    72    1
    77    41    45    1
    78    41    40    1
    79    41    44    1
    80    19    20   ar
    81    71    69    1
    82    47    45    1
    83    11    26    1
    84    11    10   ar
    85    15    29    1
    86    15    10   ar
    87    48    44    1
    88    48    51    1
    89    52    51    1
    90    52    53    1
    91    70    64    1
    92    70    68    1
    93    66    64    1
    94    49    44    1
    95     5     2    1
    96    10     1    1
    97    40    42    1
    98    40    43    1
    99    44    50    1
   100    51    57    2
   101    16     1    1
   102    16    21   ar
   103    73    68    1
   104    64    63    1
   105    64    62    1
   106    55    53    1
   107    20    21   ar
   108    20    24    1
   109     1     2    1
   110     1     6    1
   111    53    54    1
   112    53    56    1
   113    68    67    1
   114    68    65    1
   115     2     3    1
   116     2     4    1
   117    21    25    1
   118     6     8    1
   119     6     7    1
   120     6     9    1
   121   126   124    1
   122   129   125    1
   123   133   119    1
   124   119   118   ar
   125   119   120   ar
   126   124   118    1
   127   124   125    1
   128   128   125    1
   129   134   120    1
   130   118   123   ar
   131   120   121   ar
   132   125   127    1
   133   121   131    1
   134   121   122   ar
   135   123   122   ar
   136   123   130    1
   137   122   132    1
   138   124    52    1
