@<TRIPOS>MOLECULE
*****
 134 138 0 0 0
SMALL
GASTEIGER

@<TRIPOS>ATOM
      1 C          -9.4087    1.2396    2.6052 C.3     1  VEB1        0.0151
      2 C1         -9.6127    2.7740    2.7460 C.3     1  VEB1       -0.0517
      3 H          -8.7681    3.2544    3.2537 H       1  VEB1        0.0241
      4 H1        -10.5073    3.0019    3.3397 H       1  VEB1        0.0241
      5 H2         -9.7344    3.2650    1.7730 H       1  VEB1        0.0241
      6 C2         -9.0336    0.7298    4.0232 C.3     1  VEB1       -0.0517
      7 H3         -8.0705    1.1409    4.3516 H       1  VEB1        0.0241
      8 H4         -8.9432   -0.3627    4.0571 H       1  VEB1        0.0241
      9 H5         -9.7780    1.0274    4.7715 H       1  VEB1        0.0241
     10 C3         -8.2106    0.8618    1.7006 C.ar    1  VEB1       -0.0372
     11 C4         -7.2049    1.7849    1.3631 C.ar    1  VEB1       -0.0543
     12 C5         -6.0539    1.3931    0.6650 C.ar    1  VEB1       -0.0197
     13 C6         -5.8742    0.0638    0.2936 C.ar    1  VEB1        0.1206
     14 C7         -6.8843   -0.8563    0.5673 C.ar    1  VEB1       -0.0197
     15 C8         -8.0326   -0.4669    1.2714 C.ar    1  VEB1       -0.0543
     16 C9        -10.7607    0.6839    2.0925 C.ar    1  VEB1       -0.0372
     17 C10       -11.2237    1.0278    0.8055 C.ar    1  VEB1       -0.0543
     18 C11       -12.5008    0.6552    0.3682 C.ar    1  VEB1       -0.0197
     19 C12       -13.3422   -0.0581    1.2142 C.ar    1  VEB1        0.1206
     20 C13       -12.8800   -0.4802    2.4562 C.ar    1  VEB1       -0.0197
     21 C14       -11.6060   -0.1046    2.8946 C.ar    1  VEB1       -0.0543
     22 H6        -10.5958    1.6134    0.1361 H       1  VEB1        0.0622
     23 H7        -12.8431    0.9460   -0.6207 H       1  VEB1        0.0654
     24 H8        -13.5053   -1.0959    3.0966 H       1  VEB1        0.0654
     25 H9        -11.3073   -0.4310    3.8867 H       1  VEB1        0.0622
     26 H10        -7.2756    2.8286    1.6568 H       1  VEB1        0.0622
     27 H11        -5.3138    2.1516    0.4327 H       1  VEB1        0.0654
     28 H12        -6.7702   -1.8936    0.2632 H       1  VEB1        0.0654
     29 H13        -8.7796   -1.2244    1.5039 H       1  VEB1        0.0622
     30 O          -4.7656   -0.4257   -0.3479 O.3     1  VEB1       -0.4893
     31 O1        -14.6036   -0.3618    0.7731 O.3     1  VEB1       -0.4893
     32 C15        -3.5364    0.2544   -0.0359 C.3     1  VEB1        0.1186
     33 C16        -2.3579   -0.6265   -0.4791 C.3     1  VEB1        0.1229
     34 H14        -3.4726    0.4214    1.0473 H       1  VEB1        0.0724
     35 H15        -3.5009    1.2104   -0.5702 H       1  VEB1        0.0724
     36 C17        -1.0186    0.0417   -0.1258 C.3     1  VEB1        0.1186
     37 O2         -2.4501   -1.8896    0.2012 O.3     1  VEB1       -0.3850
     38 H16        -2.4162   -0.8440   -1.5513 H       1  VEB1        0.0661
     39 H17        -3.3538   -2.2181    0.0347 H       1  VEB1        0.2101
     40 C18       -15.6043    0.2555    1.6055 C.3     1  VEB1        0.1186
     41 C19       -17.0028   -0.1097    1.0916 C.3     1  VEB1        0.1230
     42 H18       -15.4670    1.3437    1.5685 H       1  VEB1        0.0724
     43 H19       -15.5075   -0.0920    2.6410 H       1  VEB1        0.0724
     44 C20       -18.0658    0.7623    1.7674 C.3     1  VEB1        0.1215
     45 O3        -17.2789   -1.4866    1.3969 O.3     1  VEB1       -0.3850
     46 H20       -17.0552   -0.0138    0.0013 H       1  VEB1        0.0662
     47 H21       -18.1840   -1.6594    1.0798 H       1  VEB1        0.2101
     48 O4        -19.3631    0.3826    1.2695 O.3     1  VEB1       -0.4617
     49 H22       -17.8841    1.8202    1.5454 H       1  VEB1        0.0725
     50 H23       -18.0512    0.5972    2.8517 H       1  VEB1        0.0725
     51 C21       -20.3866    1.1134    1.7995 C.2     1  VEB1        0.3097
     52 C22       -21.7214    0.6109    1.2857 C.3     1  VEB1        0.0508
     53 C23       -22.4730   -0.0754    2.4201 C.3     1  VEB1       -0.0525
     54 H24       -21.8844   -0.9018    2.8329 H       1  VEB1        0.0237
     55 H25       -23.4272   -0.4803    2.0674 H       1  VEB1        0.0237
     56 H26       -22.6818    0.6205    3.2406 H       1  VEB1        0.0237
     57 O5        -20.2492    2.0320    2.5944 O.2     1  VEB1       -0.2506
     58 C24       -22.5230    1.7708    0.7057 C.3     1  VEB1       -0.0525
     59 H27       -21.5439   -0.1177    0.4854 H       1  VEB1        0.0408
     60 H28       -21.9644    2.2663   -0.0957 H       1  VEB1        0.0237
     61 H29       -22.7459    2.5262    1.4675 H       1  VEB1        0.0237
     62 H30       -23.4729    1.4180    0.2906 H       1  VEB1        0.0237
     63 H31         6.0693   -1.7545    3.1891 H       1  VEB1        0.0241
     64 H32         4.3181   -1.7722    3.0522 H       1  VEB1        0.0241
     65 C25         5.2452   -1.7138    2.4677 C.3     1  VEB1       -0.0517
     66 H33         4.7122    0.7816    3.3611 H       1  VEB1        0.0241
     67 H34         5.3055   -2.6207    1.8543 H       1  VEB1        0.0241
     68 H35         6.4539    0.6634    3.1237 H       1  VEB1        0.0241
     69 C26         5.4965    0.7533    2.5950 C.3     1  VEB1       -0.0517
     70 H36         7.7925   -1.6678    1.8530 H       1  VEB1        0.0622
     71 C27         5.2850   -0.4208    1.6028 C.3     1  VEB1        0.0151
     72 C28         7.7052   -1.0527    0.9616 C.ar    1  VEB1       -0.0543
     73 H37         3.2069    1.5056    1.7500 H       1  VEB1        0.0622
     74 H38         5.5062    1.7235    2.0835 H       1  VEB1        0.0241
     75 C29         3.9162   -0.3589    0.8738 C.ar    1  VEB1       -0.0372
     76 C30         2.9766    0.6612    1.1062 C.ar    1  VEB1       -0.0543
     77 C31         6.5052   -0.3828    0.6492 C.ar    1  VEB1       -0.0372
     78 H39         9.7368   -1.4993    0.4047 H       1  VEB1        0.0654
     79 C32         8.8393   -0.9426    0.1485 C.ar    1  VEB1       -0.0197
     80 C33         3.5346   -1.3911   -0.0045 C.ar    1  VEB1       -0.0543
     81 C34         1.6901    0.6161    0.5475 C.ar    1  VEB1       -0.0197
     82 H40         4.2298   -2.1940   -0.2439 H       1  VEB1        0.0622
     83 H41         1.0073    1.4286    0.7721 H       1  VEB1        0.0654
     84 C35         2.2474   -1.4369   -0.5579 C.ar    1  VEB1       -0.0197
     85 C36         1.3056   -0.4560   -0.2527 C.ar    1  VEB1        0.1206
     86 C37         6.4939    0.4036   -0.5188 C.ar    1  VEB1       -0.0543
     87 H42        10.9600    1.6262   -1.2279 H       1  VEB1        0.0724
     88 C38         8.8103   -0.1339   -0.9817 C.ar    1  VEB1        0.1206
     89 H43         1.9696   -2.2666   -1.2034 H       1  VEB1        0.0654
     90 O6          0.0576   -0.6418   -0.7872 O.3     1  VEB1       -0.4893
     91 H44         5.5979    0.9486   -0.8095 H       1  VEB1        0.0622
     92 H45        11.1232    0.2396   -0.1225 H       1  VEB1        0.0724
     93 C39        11.0486    0.5346   -1.1758 C.3     1  VEB1        0.1186
     94 C40         7.6300    0.5128   -1.3339 C.ar    1  VEB1       -0.0197
     95 O7          9.8858   -0.0190   -1.8200 O.3     1  VEB1       -0.4893
     96 O8         12.5176   -1.3267   -1.6486 O.3     1  VEB1       -0.3850
     97 H46        13.7909    0.5542   -0.4274 H       1  VEB1        0.0725
     98 C41        12.3097    0.0700   -1.9210 C.3     1  VEB1        0.1230
     99 H47         7.5903    1.1135   -2.2382 H       1  VEB1        0.0654
    100 H48        13.4070   -1.5567   -1.9726 H       1  VEB1        0.2101
    101 C42        13.5432    0.8514   -1.4529 C.3     1  VEB1        0.1215
    102 H49        12.1759    0.1620   -3.0045 H       1  VEB1        0.0662
    103 H50        13.3552    1.9294   -1.4890 H       1  VEB1        0.0725
    104 O9         14.6428    0.5815   -2.3532 O.3     1  VEB1       -0.4617
    105 H51        18.1403   -0.8111   -1.6265 H       1  VEB1        0.0237
    106 O10        16.0843    0.8739   -0.6093 O.2     1  VEB1       -0.2506
    107 C43        15.8861    0.6621   -1.8013 C.2     1  VEB1        0.3097
    108 C44        18.2949    0.1455   -2.1361 C.3     1  VEB1       -0.0525
    109 H52        18.6053    0.8561   -1.3597 H       1  VEB1        0.0237
    110 C45        17.0134    0.6261   -2.8503 C.3     1  VEB1        0.0508
    111 H54        19.1384    0.0439   -2.8250 H       1  VEB1        0.0237
    112 C46        17.2325    2.1043   -3.2488 C.3     1  VEB1       -0.0525
    113 H55        17.3208    2.7481   -2.3650 H       1  VEB1        0.0237
    114 H56        16.3907    2.4840   -3.8388 H       1  VEB1        0.0237
    115 H57        18.1495    2.2364   -3.8328 H       1  VEB1        0.0237
    116 H58        -0.8849   -0.0009    0.9629 H       1  VEB1        0.0724
    117 H59        -1.0203    1.0839   -0.4652 H       1  VEB1        0.0724
    118 C          16.3866   -1.7096   -3.8615 C.ar    1  CRO01      -0.0476
    119 C1         15.0742   -2.1981   -3.9620 C.ar    1  CRO01      -0.0586
    120 C2         14.7909   -3.5490   -3.7496 C.ar    1  CRO01      -0.0615
    121 C3         15.8188   -4.4381   -3.4499 C.ar    1  CRO01      -0.0617
    122 C4         17.1297   -3.9776   -3.3707 C.ar    1  CRO01      -0.0615
    123 C5         17.4118   -2.6257   -3.5801 C.ar    1  CRO01      -0.0586
    124 C6         16.6602   -0.2296   -4.1223 C.3     1  CRO01      -0.0305
    125 C7         17.6772   -0.0942   -5.2741 C.3     1  CRO01      -0.0613
    126 H1         15.7318    0.1902   -4.5371 H       1  CRO01       0.0311
    127 H2         18.6865   -0.3992   -4.9825 H       1  CRO01       0.0233
    128 H3         17.7293    0.9356   -5.6405 H       1  CRO01       0.0233
    129 H4         17.3822   -0.7170   -6.1274 H       1  CRO01       0.0233
    130 H5         18.4496   -2.3053   -3.5307 H       1  CRO01       0.0620
    131 H6         15.6003   -5.4905   -3.2900 H       1  CRO01       0.0618
    132 H7         17.9369   -4.6724   -3.1526 H       1  CRO01       0.0618
    133 H8         14.2555   -1.5300   -4.2224 H       1  CRO01       0.0620
    134 H9         13.7675   -3.9085   -3.8273 H       1  CRO01       0.0618
@<TRIPOS>BOND
     1   114   112    1
     2   115   112    1
     3   112   113    1
     4   112   110    1
     5   102    98    1
     6   110   107    1
     7   110   108    1
     8   100    96    1
     9    99    94    1
    10   111   108    1
    11   104   107    1
    12   104   101    1
    13    96    98    1
    14    98   101    1
    15    98    93    1
    16   107   106    2
    17   108   109    1
    18   108   105    1
    19    95    93    1
    20    95    88    1
    21   103   101    1
    22    38    33    1
    23    94    88   ar
    24    94    86   ar
    25   101    97    1
    26    89    84    1
    27    91    86    1
    28    93    87    1
    29    93    92    1
    30    88    79   ar
    31    90    85    1
    32    90    36    1
    33    23    18    1
    34    84    85   ar
    35    84    80   ar
    36    86    77   ar
    37    35    32    1
    38    33    36    1
    39    33    32    1
    40    33    37    1
    41    85    81   ar
    42    82    80    1
    43   117    36    1
    44    30    32    1
    45    30    13    1
    46    80    75   ar
    47    36   116    1
    48    60    58    1
    49    46    41    1
    50    32    34    1
    51    22    17    1
    52    39    37    1
    53    18    17   ar
    54    18    19   ar
    55    13    12   ar
    56    13    14   ar
    57    27    12    1
    58    62    58    1
    59    81    83    1
    60    81    76   ar
    61    28    14    1
    62    79    78    1
    63    79    72   ar
    64    77    72   ar
    65    77    71    1
    66    12    11   ar
    67    14    15   ar
    68    59    52    1
    69    75    76   ar
    70    75    71    1
    71    17    16   ar
    72    58    52    1
    73    58    61    1
    74    31    19    1
    75    31    40    1
    76    76    73    1
    77    41    45    1
    78    41    40    1
    79    41    44    1
    80    19    20   ar
    81    72    70    1
    82    47    45    1
    83    11    26    1
    84    11    10   ar
    85    15    29    1
    86    15    10   ar
    87    48    44    1
    88    48    51    1
    89    52    51    1
    90    52    53    1
    91    71    65    1
    92    71    69    1
    93    67    65    1
    94    49    44    1
    95     5     2    1
    96    10     1    1
    97    40    42    1
    98    40    43    1
    99    44    50    1
   100    51    57    2
   101    16     1    1
   102    16    21   ar
   103    74    69    1
   104    65    64    1
   105    65    63    1
   106    55    53    1
   107    20    21   ar
   108    20    24    1
   109     1     2    1
   110     1     6    1
   111    53    54    1
   112    53    56    1
   113    69    68    1
   114    69    66    1
   115     2     3    1
   116     2     4    1
   117    21    25    1
   118     6     8    1
   119     6     7    1
   120     6     9    1
   121   126   124    1
   122   129   125    1
   123   133   119    1
   124   119   118   ar
   125   119   120   ar
   126   124   118    1
   127   124   125    1
   128   128   125    1
   129   134   120    1
   130   118   123   ar
   131   120   121   ar
   132   125   127    1
   133   121   131    1
   134   121   122   ar
   135   123   122   ar
   136   123   130    1
   137   122   132    1
   138   124   110    1
