@<TRIPOS>MOLECULE
*****
  134   138     1     0     0
SMALL
gas


@<TRIPOS>ATOM
      1 C           -9.4090     1.2400     2.6050 c3         1 VEB       0.014609
      2 C1          -9.6130     2.7740     2.7460 c3         1 VEB      -0.051690
      3 H           -8.7680     3.2540     3.2540 hc         1 VEB       0.024276
      4 H1         -10.5070     3.0020     3.3400 hc         1 VEB       0.024276
      5 H2          -9.7340     3.2650     1.7730 hc         1 VEB       0.024276
      6 C2          -9.0340     0.7300     4.0230 c3         1 VEB      -0.051690
      7 H3          -8.0700     1.1410     4.3520 hc         1 VEB       0.024276
      8 H4          -8.9430    -0.3630     4.0570 hc         1 VEB       0.024276
      9 H5          -9.7780     1.0270     4.7710 hc         1 VEB       0.024276
     10 C3          -8.2110     0.8620     1.7010 ca         1 VEB      -0.037779
     11 C4          -7.2050     1.7850     1.3630 ca         1 VEB      -0.055557
     12 C5          -6.0540     1.3930     0.6650 ca         1 VEB      -0.031490
     13 C6          -5.8740     0.0640     0.2940 ca         1 VEB       0.075038
     14 C7          -6.8840    -0.8560     0.5670 ca         1 VEB      -0.031490
     15 C8          -8.0330    -0.4670     1.2710 ca         1 VEB      -0.055557
     16 C9         -10.7610     0.6840     2.0920 ca         1 VEB      -0.037779
     17 C10        -11.2240     1.0280     0.8050 ca         1 VEB      -0.055557
     18 C11        -12.5010     0.6550     0.3680 ca         1 VEB      -0.031490
     19 C12        -13.3420    -0.0580     1.2140 ca         1 VEB       0.075038
     20 C13        -12.8800    -0.4800     2.4560 ca         1 VEB      -0.031490
     21 C14        -11.6060    -0.1050     2.8950 ca         1 VEB      -0.055557
     22 H6         -10.5960     1.6130     0.1360 ha         1 VEB       0.062694
     23 H7         -12.8430     0.9460    -0.6210 ha         1 VEB       0.065055
     24 H8         -13.5050    -1.0960     3.0970 ha         1 VEB       0.065055
     25 H9         -11.3070    -0.4310     3.8870 ha         1 VEB       0.062694
     26 H10         -7.2760     2.8290     1.6570 ha         1 VEB       0.062694
     27 H11         -5.3140     2.1520     0.4330 ha         1 VEB       0.065055
     28 H12         -6.7700    -1.8940     0.2630 ha         1 VEB       0.065055
     29 H13         -8.7800    -1.2240     1.5040 ha         1 VEB       0.062694
     30 O           -4.7660    -0.4260    -0.3480 os         1 VEB      -0.343351
     31 O1         -14.6040    -0.3620     0.7730 os         1 VEB      -0.343351
     32 C15         -3.5360     0.2540    -0.0360 c3         1 VEB       0.081542
     33 C16         -2.3580    -0.6260    -0.4790 c3         1 VEB       0.101650
     34 H14         -3.4730     0.4210     1.0470 h1         1 VEB       0.060081
     35 H15         -3.5010     1.2100    -0.5700 h1         1 VEB       0.060081
     36 C17         -1.0190     0.0420    -0.1260 c3         1 VEB       0.081542
     37 O2          -2.4500    -1.8900     0.2010 oh         1 VEB      -0.388276
     38 H16         -2.4160    -0.8440    -1.5510 h1         1 VEB       0.065017
     39 H17         -3.3540    -2.2180     0.0350 ho         1 VEB       0.210692
     40 C18        -15.6040     0.2560     1.6050 c3         1 VEB       0.081544
     41 C19        -17.0030    -0.1100     1.0920 c3         1 VEB       0.101764
     42 H18        -15.4670     1.3440     1.5690 h1         1 VEB       0.060081
     43 H19        -15.5080    -0.0920     2.6410 h1         1 VEB       0.060081
     44 C20        -18.0660     0.7620     1.7670 c3         1 VEB       0.084596
     45 O3         -17.2790    -1.4870     1.3970 oh         1 VEB      -0.388274
     46 H20        -17.0550    -0.0140     0.0010 h1         1 VEB       0.065019
     47 H21        -18.1840    -1.6590     1.0800 ho         1 VEB       0.210692
     48 O4         -19.3630     0.3830     1.2700 os         1 VEB      -0.312982
     49 H22        -17.8840     1.8200     1.5450 h1         1 VEB       0.060196
     50 H23        -18.0510     0.5970     2.8520 h1         1 VEB       0.060196
     51 C21        -20.3870     1.1130     1.8000 c          1 VEB       0.263425
     52 C22        -21.7210     0.6110     1.2860 c3         1 VEB       0.039496
     53 C23        -22.4730    -0.0750     2.4200 c3         1 VEB      -0.053343
     54 H24        -21.8840    -0.9020     2.8330 hc         1 VEB       0.023845
     55 H25        -23.4270    -0.4800     2.0670 hc         1 VEB       0.023845
     56 H26        -22.6820     0.6210     3.2410 hc         1 VEB       0.023845
     57 O5         -20.2490     2.0320     2.5940 o          1 VEB      -0.266333
     58 C24        -22.5230     1.7710     0.7060 c3         1 VEB      -0.053343
     59 H27        -21.5440    -0.1180     0.4850 hc         1 VEB       0.040359
     60 H28        -21.9640     2.2660    -0.0960 hc         1 VEB       0.023845
     61 H29        -22.7460     2.5260     1.4680 hc         1 VEB       0.023845
     62 H30        -23.4730     1.4180     0.2910 hc         1 VEB       0.023845
     63 H31          6.0690    -1.7540     3.1890 hc         1 VEB       0.024276
     64 H32          4.3180    -1.7720     3.0520 hc         1 VEB       0.024276
     65 C25          5.2450    -1.7140     2.4680 c3         1 VEB      -0.051690
     66 H33          4.7120     0.7820     3.3610 hc         1 VEB       0.024276
     67 H34          5.3060    -2.6210     1.8540 hc         1 VEB       0.024276
     68 H35          6.4540     0.6630     3.1240 hc         1 VEB       0.024276
     69 C26          5.4970     0.7530     2.5950 c3         1 VEB      -0.051690
     70 H36          7.7930    -1.6680     1.8530 ha         1 VEB       0.062694
     71 C27          5.2850    -0.4210     1.6030 c3         1 VEB       0.014609
     72 C28          7.7050    -1.0530     0.9620 ca         1 VEB      -0.055557
     73 H37          3.2070     1.5060     1.7500 ha         1 VEB       0.062694
     74 H38          5.5060     1.7240     2.0830 hc         1 VEB       0.024276
     75 C29          3.9160    -0.3590     0.8740 ca         1 VEB      -0.037779
     76 C30          2.9770     0.6610     1.1060 ca         1 VEB      -0.055557
     77 C31          6.5050    -0.3830     0.6490 ca         1 VEB      -0.037779
     78 H39          9.7370    -1.4990     0.4050 ha         1 VEB       0.065055
     79 C32          8.8390    -0.9430     0.1480 ca         1 VEB      -0.031490
     80 C33          3.5350    -1.3910    -0.0040 ca         1 VEB      -0.055557
     81 C34          1.6900     0.6160     0.5470 ca         1 VEB      -0.031490
     82 H40          4.2300    -2.1940    -0.2440 ha         1 VEB       0.062694
     83 H41          1.0070     1.4290     0.7720 ha         1 VEB       0.065055
     84 C35          2.2470    -1.4370    -0.5580 ca         1 VEB      -0.031490
     85 C36          1.3060    -0.4560    -0.2530 ca         1 VEB       0.075038
     86 C37          6.4940     0.4040    -0.5190 ca         1 VEB      -0.055557
     87 H42         10.9600     1.6260    -1.2280 h1         1 VEB       0.060081
     88 C38          8.8100    -0.1340    -0.9820 ca         1 VEB       0.075038
     89 H43          1.9700    -2.2670    -1.2030 ha         1 VEB       0.065055
     90 O6           0.0580    -0.6420    -0.7870 os         1 VEB      -0.343351
     91 H44          5.5980     0.9490    -0.8090 ha         1 VEB       0.062694
     92 H45         11.1230     0.2400    -0.1220 h1         1 VEB       0.060081
     93 C39         11.0490     0.5350    -1.1760 c3         1 VEB       0.081544
     94 C40          7.6300     0.5130    -1.3340 ca         1 VEB      -0.031490
     95 O7           9.8860    -0.0190    -1.8200 os         1 VEB      -0.343351
     96 O8          12.5180    -1.3270    -1.6490 oh         1 VEB      -0.388274
     97 H46         13.7910     0.5540    -0.4270 h1         1 VEB       0.060196
     98 C41         12.3100     0.0700    -1.9210 c3         1 VEB       0.101764
     99 H47          7.5900     1.1130    -2.2380 ha         1 VEB       0.065055
    100 H48         13.4070    -1.5570    -1.9730 ho         1 VEB       0.210692
    101 C42         13.5430     0.8510    -1.4530 c3         1 VEB       0.084607
    102 H49         12.1760     0.1620    -3.0050 h1         1 VEB       0.065019
    103 H50         13.3550     1.9290    -1.4890 h1         1 VEB       0.060196
    104 O9          14.6430     0.5820    -2.3530 os         1 VEB      -0.312742
    105 H51         18.1400    -0.8110    -1.6270 hc         1 VEB       0.024155
    106 O10         16.0840     0.8740    -0.6090 o          1 VEB      -0.265976
    107 C43         15.8860     0.6620    -1.8010 c          1 VEB       0.267164
    108 C44         18.2950     0.1450    -2.1360 c3         1 VEB      -0.049867
    109 H52         18.6050     0.8560    -1.3600 hc         1 VEB       0.024155
    110 C45         17.0130     0.6260    -2.8500 c3         1 VEB       0.057309
    111 H54         19.1380     0.0440    -2.8250 hc         1 VEB       0.024155
    112 C46         17.2330     2.1040    -3.2490 c3         1 VEB      -0.049867
    113 H55         17.3210     2.7480    -2.3650 hc         1 VEB       0.024155
    114 H56         16.3910     2.4840    -3.8390 hc         1 VEB       0.024155
    115 H57         18.1490     2.2360    -3.8330 hc         1 VEB       0.024155
    116 H58         -0.8850    -0.0010     0.9630 h1         1 VEB       0.060081
    117 H59         -1.0200     1.0840    -0.4650 h1         1 VEB       0.060081
    118 C47         16.3870    -1.7100    -3.8610 ca         1 CRO      -0.044120
    119 C48         15.0740    -2.1980    -3.9620 ca         1 CRO      -0.058741
    120 C49         14.7910    -3.5490    -3.7500 ca         1 CRO      -0.061987
    121 C50         15.8190    -4.4380    -3.4500 ca         1 CRO      -0.062252
    122 C51         17.1300    -3.9780    -3.3710 ca         1 CRO      -0.061987
    123 C52         17.4120    -2.6260    -3.5800 ca         1 CRO      -0.058741
    124 C53         16.6600    -0.2300    -4.1220 c3         1 CRO      -0.004518
    125 C54         17.6770    -0.0940    -5.2740 c3         1 CRO      -0.057373
    126 H53         15.7320     0.1900    -4.5370 hc         1 CRO       0.036042
    127 H60         18.6860    -0.3990    -4.9820 hc         1 CRO       0.023692
    128 H61         17.7290     0.9360    -5.6410 hc         1 CRO       0.023692
    129 H62         17.3820    -0.7170    -6.1270 hc         1 CRO       0.023692
    130 H63         18.4500    -2.3050    -3.5310 ha         1 CRO       0.062576
    131 H64         15.6000    -5.4900    -3.2900 ha         1 CRO       0.062273
    132 H65         17.9370    -4.6720    -3.1530 ha         1 CRO       0.062283
    133 H66         14.2550    -1.5300    -4.2220 ha         1 CRO       0.062576
    134 H67         13.7680    -3.9090    -3.8270 ha         1 CRO       0.062283
@<TRIPOS>BOND
     1   114   112 1   
     2   115   112 1   
     3   112   113 1   
     4   112   110 1   
     5   102    98 1   
     6   110   107 1   
     7   110   108 1   
     8   100    96 1   
     9    99    94 1   
    10   111   108 1   
    11   104   107 1   
    12   104   101 1   
    13    96    98 1   
    14    98   101 1   
    15    98    93 1   
    16   107   106 2   
    17   108   109 1   
    18   108   105 1   
    19    95    93 1   
    20    95    88 1   
    21   103   101 1   
    22    38    33 1   
    23    94    88 ar  
    24    94    86 ar  
    25   101    97 1   
    26    89    84 1   
    27    91    86 1   
    28    93    87 1   
    29    93    92 1   
    30    88    79 ar  
    31    90    85 1   
    32    90    36 1   
    33    23    18 1   
    34    84    85 ar  
    35    84    80 ar  
    36    86    77 ar  
    37    35    32 1   
    38    33    36 1   
    39    33    32 1   
    40    33    37 1   
    41    85    81 ar  
    42    82    80 1   
    43   117    36 1   
    44    30    32 1   
    45    30    13 1   
    46    80    75 ar  
    47    36   116 1   
    48    60    58 1   
    49    46    41 1   
    50    32    34 1   
    51    22    17 1   
    52    39    37 1   
    53    18    17 ar  
    54    18    19 ar  
    55    13    12 ar  
    56    13    14 ar  
    57    27    12 1   
    58    62    58 1   
    59    81    83 1   
    60    81    76 ar  
    61    28    14 1   
    62    79    78 1   
    63    79    72 ar  
    64    77    72 ar  
    65    77    71 1   
    66    12    11 ar  
    67    14    15 ar  
    68    59    52 1   
    69    75    76 ar  
    70    75    71 1   
    71    17    16 ar  
    72    58    52 1   
    73    58    61 1   
    74    31    19 1   
    75    31    40 1   
    76    76    73 1   
    77    41    45 1   
    78    41    40 1   
    79    41    44 1   
    80    19    20 ar  
    81    72    70 1   
    82    47    45 1   
    83    11    26 1   
    84    11    10 ar  
    85    15    29 1   
    86    15    10 ar  
    87    48    44 1   
    88    48    51 1   
    89    52    51 1   
    90    52    53 1   
    91    71    65 1   
    92    71    69 1   
    93    67    65 1   
    94    49    44 1   
    95     5     2 1   
    96    10     1 1   
    97    40    42 1   
    98    40    43 1   
    99    44    50 1   
   100    51    57 2   
   101    16     1 1   
   102    16    21 ar  
   103    74    69 1   
   104    65    64 1   
   105    65    63 1   
   106    55    53 1   
   107    20    21 ar  
   108    20    24 1   
   109     1     2 1   
   110     1     6 1   
   111    53    54 1   
   112    53    56 1   
   113    69    68 1   
   114    69    66 1   
   115     2     3 1   
   116     2     4 1   
   117    21    25 1   
   118     6     8 1   
   119     6     7 1   
   120     6     9 1   
   121   126   124 1   
   122   129   125 1   
   123   133   119 1   
   124   119   118 ar  
   125   119   120 ar  
   126   124   118 1   
   127   124   125 1   
   128   128   125 1   
   129   134   120 1   
   130   118   123 ar  
   131   120   121 ar  
   132   125   127 1   
   133   121   131 1   
   134   121   122 ar  
   135   123   122 ar  
   136   123   130 1   
   137   122   132 1   
   138   124   110 1   
@<TRIPOS>SUBSTRUCTURE
     1 VEB         1 TEMP              0 ****  ****    0 ROOT
