@<TRIPOS>MOLECULE
*****
  134   138     1     0     0
SMALL
gas


@<TRIPOS>ATOM
      1 C           -4.6020     1.3610     2.0080 c3         1 VEB       0.014609
      2 C1          -4.7960     2.8980     2.1430 c3         1 VEB      -0.051690
      3 H           -3.9440     3.3770     2.6400 hc         1 VEB       0.024276
      4 H1          -5.6840     3.1340     2.7440 hc         1 VEB       0.024276
      5 H2          -4.9260     3.3830     1.1680 hc         1 VEB       0.024276
      6 C2          -4.2100     0.8560     3.4230 c3         1 VEB      -0.051690
      7 H3          -3.2370     1.2570     3.7340 hc         1 VEB       0.024276
      8 H4          -4.1330    -0.2380     3.4620 hc         1 VEB       0.024276
      9 H5          -4.9390     1.1670     4.1820 hc         1 VEB       0.024276
     10 C3          -3.4140     0.9740     1.0930 ca         1 VEB      -0.037779
     11 C4          -2.4010     1.8900     0.7540 ca         1 VEB      -0.055557
     12 C5          -1.2500     1.4900     0.0600 ca         1 VEB      -0.031490
     13 C6          -1.0770     0.1590    -0.3070 ca         1 VEB       0.075038
     14 C7          -2.0950    -0.7530    -0.0360 ca         1 VEB      -0.031490
     15 C8          -3.2440    -0.3550     0.6640 ca         1 VEB      -0.055557
     16 C9          -5.9660     0.8140     1.5200 ca         1 VEB      -0.037779
     17 C10         -6.4400     1.1390     0.2330 ca         1 VEB      -0.055557
     18 C11         -7.7320     0.7850    -0.1760 ca         1 VEB      -0.031490
     19 C12         -8.5820     0.1120     0.6960 ca         1 VEB       0.075038
     20 C13         -8.1100    -0.2890     1.9410 ca         1 VEB      -0.031490
     21 C14         -6.8190     0.0650     2.3510 ca         1 VEB      -0.055557
     22 H6          -5.8110     1.6980    -0.4580 ha         1 VEB       0.062694
     23 H7          -8.0810     1.0610    -1.1670 ha         1 VEB       0.065055
     24 H8          -8.7310    -0.8790     2.6080 ha         1 VEB       0.065055
     25 H9          -6.5140    -0.2460     3.3460 ha         1 VEB       0.062694
     26 H10         -2.4650     2.9350     1.0470 ha         1 VEB       0.062694
     27 H11         -0.5050     2.2440    -0.1690 ha         1 VEB       0.065055
     28 H12         -1.9870    -1.7920    -0.3370 ha         1 VEB       0.065055
     29 H13         -3.9960    -1.1080     0.8970 ha         1 VEB       0.062694
     30 O            0.0340    -0.3400    -0.9390 os         1 VEB      -0.343351
     31 O1          -9.8490    -0.1700     0.2590 os         1 VEB      -0.343351
     32 C15          1.2630     0.3470    -0.6420 c3         1 VEB       0.081542
     33 C16          2.4440    -0.5300    -1.0890 c3         1 VEB       0.101650
     34 H14          1.3340     0.5200     0.4400 h1         1 VEB       0.060081
     35 H15          1.2900     1.3000    -1.1820 h1         1 VEB       0.060081
     36 C17          3.7830     0.1490    -0.7530 c3         1 VEB       0.081542
     37 O2           2.3660    -1.7880    -0.3990 oh         1 VEB      -0.388276
     38 H16          2.3770    -0.7560    -2.1590 h1         1 VEB       0.065017
     39 H17          1.4640    -2.1250    -0.5550 ho         1 VEB       0.210692
     40 C18        -10.8600     0.3070     1.1680 c3         1 VEB       0.081544
     41 C19        -12.2440     0.0760     0.5470 c3         1 VEB       0.101764
     42 H18        -10.7040     1.3790     1.3420 h1         1 VEB       0.060081
     43 H19        -10.8020    -0.2380     2.1170 h1         1 VEB       0.060081
     44 C20        -13.3280     0.8520     1.3030 c3         1 VEB       0.084596
     45 O3         -12.5640    -1.3250     0.6070 oh         1 VEB      -0.388274
     46 H20        -12.2430     0.3490    -0.5140 h1         1 VEB       0.065019
     47 H21        -13.4560    -1.4170     0.2260 ho         1 VEB       0.210692
     48 O4         -14.5880     0.6060     0.6470 os         1 VEB      -0.312973
     49 H22        -13.1150     1.9270     1.2850 h1         1 VEB       0.060196
     50 H23        -13.3970     0.4960     2.3380 h1         1 VEB       0.060196
     51 C21        -15.6620     1.2050     1.2410 c          1 VEB       0.263728
     52 C22        -16.9360     0.8190     0.5030 c3         1 VEB       0.042890
     53 C23        -17.3210    -0.6190     0.8970 c3         1 VEB      -0.034642
     54 H25        -17.5920    -0.6370     1.9620 hc         1 VEB       0.028082
     55 H26        -16.4250    -1.2470     0.8170 hc         1 VEB       0.028082
     56 O5         -15.6010     1.9290     2.2240 o          1 VEB      -0.266321
     57 C24        -18.0460     1.8290     0.7880 c3         1 VEB      -0.053050
     58 H27        -16.7010     0.8800    -0.5660 hc         1 VEB       0.040673
     59 H28        -17.7050     2.8490     0.5790 hc         1 VEB       0.023856
     60 H29        -18.3590     1.7940     1.8370 hc         1 VEB       0.023856
     61 H30        -18.9240     1.6400     0.1630 hc         1 VEB       0.023856
     62 H31         10.8420    -1.6540     2.5590 hc         1 VEB       0.024276
     63 H32          9.0960    -1.6870     2.3830 hc         1 VEB       0.024276
     64 C25         10.0350    -1.6110     1.8200 c3         1 VEB      -0.051690
     65 H33          9.4710     0.8790     2.7320 hc         1 VEB       0.024276
     66 H34         10.1200    -2.5080     1.1950 hc         1 VEB       0.024276
     67 H35         11.2170     0.7600     2.5330 hc         1 VEB       0.024276
     68 C26         10.2720     0.8570     1.9830 c3         1 VEB      -0.051690
     69 H36         12.6200    -1.4320     1.3370 ha         1 VEB       0.062694
     70 C27         10.0800    -0.3050     0.9730 c3         1 VEB       0.014609
     71 C28         12.5350    -0.8600     0.4160 ca         1 VEB      -0.055557
     72 H37          8.0150     1.6380     1.0850 ha         1 VEB       0.062694
     73 H38         10.2960     1.8320     1.4820 hc         1 VEB       0.024276
     74 C29          8.7190    -0.2380     0.2290 ca         1 VEB      -0.037779
     75 C30          7.7830     0.7880     0.4490 ca         1 VEB      -0.055557
     76 C31         11.3180    -0.2550     0.0430 ca         1 VEB      -0.037779
     77 H39         14.5920    -1.2530    -0.0600 ha         1 VEB       0.065055
     78 C32         13.6870    -0.7380    -0.3680 ca         1 VEB      -0.031490
     79 C33          8.3370    -1.2740    -0.6450 ca         1 VEB      -0.055557
     80 C34          6.4960     0.7410    -0.1100 ca         1 VEB      -0.031490
     81 H40          9.0300    -2.0810    -0.8780 ha         1 VEB       0.062694
     82 H41          5.8150     1.5570     0.1080 ha         1 VEB       0.065055
     83 C35          7.0490    -1.3220    -1.1980 ca         1 VEB      -0.031490
     84 C36          6.1090    -0.3380    -0.8980 ca         1 VEB       0.075038
     85 C37         11.3090     0.4800    -1.1570 ca         1 VEB      -0.055557
     86 H42         15.7540     1.7800    -1.5750 h1         1 VEB       0.060081
     87 C38         13.6610     0.0210    -1.5320 ca         1 VEB       0.075038
     88 H43          6.7700    -2.1560    -1.8370 ha         1 VEB       0.065055
     89 O6           4.8570    -0.5280    -1.4250 os         1 VEB      -0.343351
     90 H44         10.4020     0.9760    -1.4970 ha         1 VEB       0.062694
     91 H45         16.0500     0.2590    -0.6890 h1         1 VEB       0.060081
     92 C39         15.9050     0.6990    -1.6820 c3         1 VEB       0.081544
     93 C40         12.4650     0.6010    -1.9430 ca         1 VEB      -0.031490
     94 O7          14.7510     0.1570    -2.3490 os         1 VEB      -0.343351
     95 O8          17.4560    -0.9850    -2.4780 oh         1 VEB      -0.388274
     96 H46         18.5790     0.8950    -0.9720 h1         1 VEB       0.060196
     97 C41         17.1530     0.4200    -2.5310 c3         1 VEB       0.101764
     98 H47         12.4280     1.1620    -2.8730 ha         1 VEB       0.065055
     99 H48         18.2530    -1.1100    -3.0250 ho         1 VEB       0.210692
    100 C42         18.3650     1.1950    -2.0050 c3         1 VEB       0.084596
    101 H49         16.9660     0.6590    -3.5840 h1         1 VEB       0.065019
    102 H50         18.1810     2.2740    -2.0540 h1         1 VEB       0.060196
    103 O9          19.5050     0.8680    -2.8250 os         1 VEB      -0.312982
    104 H51         22.6970    -0.2680    -1.6890 hc         1 VEB       0.023845
    105 O10         20.7800     2.1710    -1.4330 o          1 VEB      -0.266333
    106 C43         20.6770     1.4130    -2.3880 c          1 VEB       0.263425
    107 C44         23.0030     0.5190    -2.3860 c3         1 VEB      -0.053343
    108 H52         23.3940     1.3520    -1.7910 hc         1 VEB       0.023845
    109 C45         21.8310     0.9560    -3.2590 c3         1 VEB       0.039496
    110 H53         21.5070     0.0880    -3.8460 hc         1 VEB       0.040359
    111 H54         23.8220     0.1290    -3.0000 hc         1 VEB       0.023845
    112 C46         22.2310     2.0790    -4.2070 c3         1 VEB      -0.053343
    113 H55         22.5670     2.9660    -3.6570 hc         1 VEB       0.023845
    114 H56         21.3840     2.3810    -4.8320 hc         1 VEB       0.023845
    115 H57         23.0450     1.7600    -4.8670 hc         1 VEB       0.023845
    116 H58          3.9290     0.1120     0.3340 h1         1 VEB       0.060081
    117 H59          3.7700     1.1900    -1.0960 h1         1 VEB       0.060081
    118 C47        -18.7880    -2.6680     0.5440 ca         1 CRO      -0.045167
    119 C48        -20.1170    -3.0260     0.8200 ca         1 CRO      -0.058776
    120 C49        -20.4400    -4.3270     1.2130 ca         1 CRO      -0.061988
    121 C50        -19.4400    -5.2880     1.3370 ca         1 CRO      -0.062252
    122 C51        -18.1180    -4.9510     1.0610 ca         1 CRO      -0.061988
    123 C52        -17.7940    -3.6530     0.6610 ca         1 CRO      -0.058776
    124 C53        -18.4690    -1.2520     0.0760 c3         1 CRO      -0.018271
    125 C54        -18.1820    -1.2690    -1.4290 c3         1 CRO      -0.058391
    126 H24        -19.3660    -0.6390     0.2340 hc         1 CRO       0.034963
    127 H60        -17.2270    -1.7580    -1.6500 hc         1 CRO       0.023657
    128 H61        -18.1460    -0.2550    -1.8370 hc         1 CRO       0.023657
    129 H62        -18.9660    -1.8070    -1.9740 hc         1 CRO       0.023657
    130 H63        -16.7560    -3.4270     0.4330 ha         1 CRO       0.062575
    131 H64        -19.6910    -6.3010     1.6410 ha         1 CRO       0.062273
    132 H65        -17.3360    -5.7010     1.1510 ha         1 CRO       0.062283
    133 H66        -20.9170    -2.2950     0.7230 ha         1 CRO       0.062575
    134 H67        -21.4740    -4.5910     1.4180 ha         1 CRO       0.062283
@<TRIPOS>BOND
     1   114   112 1   
     2   115   112 1   
     3   112   113 1   
     4   112   109 1   
     5   110   109 1   
     6   101    97 1   
     7   109   106 1   
     8   109   107 1   
     9    99    95 1   
    10    98    93 1   
    11   111   107 1   
    12   103   106 1   
    13   103   100 1   
    14    95    97 1   
    15    97   100 1   
    16    97    92 1   
    17   106   105 2   
    18   107   108 1   
    19   107   104 1   
    20    94    92 1   
    21    94    87 1   
    22   102   100 1   
    23    38    33 1   
    24    93    87 ar  
    25    93    85 ar  
    26   100    96 1   
    27    88    83 1   
    28    90    85 1   
    29    92    86 1   
    30    92    91 1   
    31    87    78 ar  
    32    89    84 1   
    33    89    36 1   
    34    23    18 1   
    35    83    84 ar  
    36    83    79 ar  
    37    85    76 ar  
    38    35    32 1   
    39    33    36 1   
    40    33    32 1   
    41    33    37 1   
    42    84    80 ar  
    43    81    79 1   
    44   117    36 1   
    45    30    32 1   
    46    30    13 1   
    47    79    74 ar  
    48    36   116 1   
    49    59    57 1   
    50    46    41 1   
    51    32    34 1   
    52    22    17 1   
    53    39    37 1   
    54    18    17 ar  
    55    18    19 ar  
    56    13    12 ar  
    57    13    14 ar  
    58    27    12 1   
    59    61    57 1   
    60    80    82 1   
    61    80    75 ar  
    62    28    14 1   
    63    78    77 1   
    64    78    71 ar  
    65    76    71 ar  
    66    76    70 1   
    67    12    11 ar  
    68    14    15 ar  
    69    58    52 1   
    70    74    75 ar  
    71    74    70 1   
    72    17    16 ar  
    73    57    52 1   
    74    57    60 1   
    75    31    19 1   
    76    31    40 1   
    77    75    72 1   
    78    41    45 1   
    79    41    40 1   
    80    41    44 1   
    81    19    20 ar  
    82    71    69 1   
    83    47    45 1   
    84    11    26 1   
    85    11    10 ar  
    86    15    29 1   
    87    15    10 ar  
    88    48    44 1   
    89    48    51 1   
    90    52    51 1   
    91    52    53 1   
    92    70    64 1   
    93    70    68 1   
    94    66    64 1   
    95    49    44 1   
    96     5     2 1   
    97    10     1 1   
    98    40    42 1   
    99    40    43 1   
   100    44    50 1   
   101    51    56 2   
   102    16     1 1   
   103    16    21 ar  
   104    73    68 1   
   105    64    63 1   
   106    64    62 1   
   107    54    53 1   
   108    20    21 ar  
   109    20    24 1   
   110     1     2 1   
   111     1     6 1   
   112    53    55 1   
   113    68    67 1   
   114    68    65 1   
   115     2     3 1   
   116     2     4 1   
   117    21    25 1   
   118     6     8 1   
   119     6     7 1   
   120     6     9 1   
   121   126   124 1   
   122   129   125 1   
   123   133   119 1   
   124   119   118 ar  
   125   119   120 ar  
   126   124   118 1   
   127   124   125 1   
   128   128   125 1   
   129   134   120 1   
   130   118   123 ar  
   131   120   121 ar  
   132   125   127 1   
   133   121   131 1   
   134   121   122 ar  
   135   123   122 ar  
   136   123   130 1   
   137   122   132 1   
   138   124    53 1   
@<TRIPOS>SUBSTRUCTURE
     1 VEB         1 TEMP              0 ****  ****    0 ROOT
