@<TRIPOS>MOLECULE
*****
 134 138 0 0 0
SMALL
GASTEIGER
@<TRIPOS>ATOM
      1 C             17.25     25.83     26.98  C.3    1  VEB        0.0151
      2 C1            17.03     27.37     27.07  C.3    1  VEB       -0.0517
      3 H             17.86     27.87     27.58    H    1  VEB        0.0241
      4 H1            16.11     27.59     27.63    H    1  VEB        0.0241
      5 H2            16.92     27.81     26.07    H    1  VEB        0.0241
      6 C2            17.61     25.35     28.41  C.3    1  VEB       -0.0517
      7 H3            18.57     25.78     28.73    H    1  VEB        0.0241
      8 H4             17.7     24.26     28.46    H    1  VEB        0.0241
      9 H5            16.85     25.67     29.14    H    1  VEB        0.0241
     10 C3            18.45     25.45     26.09 C.ar    1  VEB       -0.0372
     11 C4            19.45     26.38     25.72 C.ar    1  VEB       -0.0543
     12 C5            20.62     25.98     25.07 C.ar    1  VEB       -0.0197
     13 C6            20.84     24.62     24.78 C.ar    1  VEB        0.1206
     14 C7            19.84     23.69     25.09 C.ar    1  VEB       -0.0197
     15 C8            18.66     24.09     25.74 C.ar    1  VEB       -0.0543
     16 C9            15.92     25.23     26.46 C.ar    1  VEB       -0.0372
     17 C10           15.48     25.55     25.16 C.ar    1  VEB       -0.0543
     18 C11           14.18     25.21     24.73 C.ar    1  VEB       -0.0197
     19 C12            13.3     24.55      25.6 C.ar    1  VEB        0.1206
     20 C13           13.76     24.15     26.86 C.ar    1  VEB       -0.0197
     21 C14           15.05     24.49     27.29 C.ar    1  VEB       -0.0543
     22 H6            16.13     26.11     24.49    H    1  VEB        0.0622
     23 H7            13.83     25.51     23.74    H    1  VEB        0.0654
     24 H8             13.1      23.6     27.53    H    1  VEB        0.0654
     25 H9            15.34      24.2      28.3    H    1  VEB        0.0622
     26 H10           19.34     27.43     25.97    H    1  VEB        0.0622
     27 H11           21.37     26.72     24.82    H    1  VEB        0.0654
     28 H12            20.0     22.64     24.85    H    1  VEB        0.0654
     29 H13           17.92     23.35     26.01    H    1  VEB        0.0622
     30 O             22.03     24.18     24.23  O.3    1  VEB       -0.4893
     31 O1            11.99     24.35     25.23  O.3    1  VEB       -0.4893
     32 C15           23.27     24.88     24.47  C.3    1  VEB        0.1186
     33 C16           24.47     24.01     24.02  C.3    1  VEB        0.1229
     34 H14           23.37      25.1     25.54    H    1  VEB        0.0724
     35 H15           23.28     25.83     23.92    H    1  VEB        0.0724
     36 C17           25.81     24.71     24.36  C.3    1  VEB        0.1186
     37 O2            24.38     22.76     24.69  O.3    1  VEB       -0.3850
     38 H16           24.41     23.87     22.93    H    1  VEB        0.0661
     39 H17           23.45     22.46     24.59    H    1  VEB        0.2101
     40 C18           10.97     24.89      26.1  C.3    1  VEB        0.1186
     41 C19            9.55     24.57     25.55  C.3    1  VEB        0.1230
     42 H18           11.09     25.98     26.16    H    1  VEB        0.0724
     43 H19           11.05     24.48     27.11    H    1  VEB        0.0724
     44 C20            8.51     25.49     26.23  C.3    1  VEB        0.1215
     45 O3              9.2     23.22     25.84  O.3    1  VEB       -0.3850
     46 H20            9.53     24.75     24.47    H    1  VEB        0.0662
     47 H21            8.24     23.15     25.64    H    1  VEB        0.2101
     48 O4             7.18     25.11     25.81  O.3    1  VEB       -0.4617
     49 H22            8.71     26.54     25.96    H    1  VEB        0.0725
     50 H23             8.6      25.4     27.32    H    1  VEB        0.0725
     51 C21            6.13     25.81     26.34  C.2    1  VEB        0.3097
     52 C22            4.77     25.29     25.85  C.3    1  VEB        0.0508
     53 C23             4.0     24.63     27.02  C.3    1  VEB       -0.0525
     54 H24            4.58     23.81     27.46    H    1  VEB        0.0237
     55 H25            3.04     24.22     26.67    H    1  VEB        0.0237
     56 H26            3.78     25.36     27.81    H    1  VEB        0.0237
     57 O5             6.26     26.74     27.12  O.2    1  VEB       -0.2506
     58 C24            3.94     26.42      25.2  C.3    1  VEB       -0.0525
     59 H27            4.97     24.53     25.09    H    1  VEB        0.0408
     60 H28            4.49     26.87     24.37    H    1  VEB        0.0237
     61 H29            3.72     27.22     25.93    H    1  VEB        0.0237
     62 H30            2.99     26.04     24.82    H    1  VEB        0.0237
     63 H31           32.91      22.7     27.43    H    1  VEB        0.0241
     64 H32           31.17     22.62     27.14    H    1  VEB        0.0241
     65 C25           32.14     22.78     26.65  C.3    1  VEB       -0.0517
     66 H33           31.42     25.21     27.74    H    1  VEB        0.0241
     67 H34            32.3     21.96     25.94    H    1  VEB        0.0241
     68 H35           33.18     25.08     27.68    H    1  VEB        0.0241
     69 C26           32.29     25.24     27.07  C.3    1  VEB       -0.0517
     70 H36           34.76     23.55     26.62    H    1  VEB        0.0622
     71 C27           32.17     24.17     25.94  C.3    1  VEB        0.0151
     72 C28           34.69     23.94     25.61 C.ar    1  VEB       -0.0543
     73 H37           30.19     26.21      26.0    H    1  VEB        0.0622
     74 H38           32.36     26.25     26.64    H    1  VEB        0.0241
     75 C29           30.83      24.3     25.16 C.ar    1  VEB       -0.0372
     76 C30           29.93     25.37     25.37 C.ar    1  VEB       -0.0543
     77 C31           33.43     24.29     25.06 C.ar    1  VEB       -0.0372
     78 H39           36.81     23.78     25.31    H    1  VEB        0.0654
     79 C32           35.87     24.09     24.87 C.ar    1  VEB       -0.0197
     80 C33           30.42     23.26     24.29 C.ar    1  VEB       -0.0543
     81 C34           28.63     25.34     24.83 C.ar    1  VEB       -0.0197
     82 H40            31.1     22.44     24.08    H    1  VEB        0.0622
     83 H41           27.95     26.16     25.05    H    1  VEB        0.0654
     84 C35           29.12     23.23     23.75 C.ar    1  VEB       -0.0197
     85 C36           28.21     24.25     24.05 C.ar    1  VEB        0.1206
     86 C37            33.4     24.81     23.75 C.ar    1  VEB       -0.0543
     87 H42           38.08     26.31     23.72    H    1  VEB        0.0724
     88 C38           35.83     24.62     23.57 C.ar    1  VEB        0.1206
     89 H43            28.8      22.4     23.14    H    1  VEB        0.0654
     90 O6             26.9     24.11     23.62  O.3    1  VEB       -0.4893
     91 H44           32.46      25.1      23.3    H    1  VEB        0.0622
     92 H45           38.43     24.69     24.35    H    1  VEB        0.0724
     93 C39            38.2     25.25     23.44  C.3    1  VEB        0.1186
     94 C40           34.59     24.96     23.01 C.ar    1  VEB       -0.0197
     95 O7            36.98     24.78     22.83  O.3    1  VEB       -0.4893
     96 O8            39.77     23.72     22.37  O.3    1  VEB       -0.3850
     97 H46           40.78     25.64     24.07    H    1  VEB        0.0725
     98 C41            39.4      25.1     22.48  C.3    1  VEB        0.1230
     99 H47           34.55     25.36      22.0    H    1  VEB        0.0654
    100 H48           40.66     23.73     21.96    H    1  VEB        0.2101
    101 C42           40.63     25.87     23.01  C.3    1  VEB        0.1215
    102 H49           39.13      25.5     21.49    H    1  VEB        0.0662
    103 H50           40.45     26.95     22.92    H    1  VEB        0.0725
    104 O9            41.81     25.49     22.26  O.3    1  VEB       -0.4617
    105 O10           43.12     26.86     23.52  O.2    1  VEB       -0.2506
    106 C43            43.0     26.04     22.63  C.2    1  VEB        0.3097
    107 C44           45.33     25.01     22.73  C.3    1  VEB       -0.0525
    108 H52           45.74     25.85      23.3    H    1  VEB        0.0237
    109 C45           44.17     25.48     21.81  C.3    1  VEB        0.0508
    110 H53            43.8     24.61     21.26    H    1  VEB        0.0408
    111 H54           46.14     24.56     22.14    H    1  VEB        0.0237
    112 C46           44.67     26.53     20.78  C.3    1  VEB       -0.0525
    113 H55           45.05     27.42     21.29    H    1  VEB        0.0237
    114 H56           43.86     26.83     20.11    H    1  VEB        0.0237
    115 H57           45.49     26.12     20.17    H    1  VEB        0.0237
    116 H58           25.98     24.61     25.44    H    1  VEB        0.0724
    117 H59           25.75     25.78     24.12    H    1  VEB        0.0724
    118 C             43.97     21.99     21.25 C.ar    1 CRO0       -0.0476
    119 C1             42.8     21.22     21.23 C.ar    1 CRO0       -0.0586
    120 C2            42.86     19.82     21.25 C.ar    1 CRO0       -0.0615
    121 C3            44.11     19.17     21.29 C.ar    1 CRO0       -0.0617
    122 C4            45.29     19.94     21.32 C.ar    1 CRO0       -0.0615
    123 C5            45.22     21.34      21.3 C.ar    1 CRO0       -0.0586
    124 C6            43.83     23.51     21.23  C.3    1 CRO0       -0.0305
    125 C7            45.14     24.32     21.26  C.3    1 CRO0       -0.0613
    126 H1            43.27      23.8     20.33    H    1 CRO0        0.0311
    127 H2            45.71      24.1     22.17    H    1 CRO0        0.0233
    128 H3            44.93     25.39     21.23    H    1 CRO0        0.0233
    129 H4            45.77     24.08     20.39    H    1 CRO0        0.0233
    130 H5            46.15      21.9     21.32    H    1 CRO0        0.0620
    131 H6            44.16     18.09     21.31    H    1 CRO0        0.0618
    132 H7            46.25     19.44     21.36    H    1 CRO0        0.0618
    133 H8            41.83      21.7     21.19    H    1 CRO0        0.0620
    134 H9            41.95     19.23     21.23    H    1 CRO0        0.0618
@<TRIPOS>BOND
     1   114   112    1
     2   115   112    1
     3   112   113    1
     4   112   109    1
     5   110   109    1
     6   102    98    1
     7   109   106    1
     8   109   107    1
     9   100    96    1
    10    99    94    1
    11   111   107    1
    12   104   106    1
    13   104   101    1
    14    96    98    1
    15    98   101    1
    16    98    93    1
    17   106   105    2
    18   107   108    1
    19    95    93    1
    20    95    88    1
    21   103   101    1
    22    38    33    1
    23    94    88   ar
    24    94    86   ar
    25   101    97    1
    26    89    84    1
    27    91    86    1
    28    93    87    1
    29    93    92    1
    30    88    79   ar
    31    90    85    1
    32    90    36    1
    33    23    18    1
    34    84    85   ar
    35    84    80   ar
    36    86    77   ar
    37    35    32    1
    38    33    36    1
    39    33    32    1
    40    33    37    1
    41    85    81   ar
    42    82    80    1
    43   117    36    1
    44    30    32    1
    45    30    13    1
    46    80    75   ar
    47    36   116    1
    48    60    58    1
    49    46    41    1
    50    32    34    1
    51    22    17    1
    52    39    37    1
    53    18    17   ar
    54    18    19   ar
    55    13    12   ar
    56    13    14   ar
    57    27    12    1
    58    62    58    1
    59    81    83    1
    60    81    76   ar
    61    28    14    1
    62    79    78    1
    63    79    72   ar
    64    77    72   ar
    65    77    71    1
    66    12    11   ar
    67    14    15   ar
    68    59    52    1
    69    75    76   ar
    70    75    71    1
    71    17    16   ar
    72    58    52    1
    73    58    61    1
    74    31    19    1
    75    31    40    1
    76    76    73    1
    77    41    45    1
    78    41    40    1
    79    41    44    1
    80    19    20   ar
    81    72    70    1
    82    47    45    1
    83    11    26    1
    84    11    10   ar
    85    15    29    1
    86    15    10   ar
    87    48    44    1
    88    48    51    1
    89    52    51    1
    90    52    53    1
    91    71    65    1
    92    71    69    1
    93    67    65    1
    94    49    44    1
    95     5     2    1
    96    10     1    1
    97    40    42    1
    98    40    43    1
    99    44    50    1
   100    51    57    2
   101    16     1    1
   102    16    21   ar
   103    74    69    1
   104    65    64    1
   105    65    63    1
   106    55    53    1
   107    20    21   ar
   108    20    24    1
   109     1     2    1
   110     1     6    1
   111    53    54    1
   112    53    56    1
   113    69    68    1
   114    69    66    1
   115     2     3    1
   116     2     4    1
   117    21    25    1
   118     6     8    1
   119     6     7    1
   120     6     9    1
   121   126   124    1
   122   129   125    1
   123   133   119    1
   124   119   118   ar
   125   119   120   ar
   126   124   118    1
   127   124   125    1
   128   128   125    1
   129   134   120    1
   130   118   123   ar
   131   120   121   ar
   132   125   127    1
   133   121   131    1
   134   121   122   ar
   135   123   122   ar
   136   123   130    1
   137   122   132    1
   138   124   107    1
