@<TRIPOS>MOLECULE
*****
 150 155 0 0 0
SMALL
GASTEIGER
@<TRIPOS>ATOM
      1 C             17.25     25.83     26.98  C.3    1  VEB        0.0151
      2 C1            17.03     27.37     27.07  C.3    1  VEB       -0.0517
      3 H             17.86     27.87     27.58    H    1  VEB        0.0241
      4 H1            16.11     27.59     27.63    H    1  VEB        0.0241
      5 H2            16.92     27.81     26.07    H    1  VEB        0.0241
      6 C2            17.61     25.35     28.41  C.3    1  VEB       -0.0517
      7 H3            18.57     25.78     28.73    H    1  VEB        0.0241
      8 H4             17.7     24.26     28.46    H    1  VEB        0.0241
      9 H5            16.85     25.67     29.14    H    1  VEB        0.0241
     10 C3            18.45     25.45     26.09 C.ar    1  VEB       -0.0372
     11 C4            19.45     26.38     25.72 C.ar    1  VEB       -0.0543
     12 C5            20.62     25.98     25.07 C.ar    1  VEB       -0.0197
     13 C6            20.84     24.62     24.78 C.ar    1  VEB        0.1206
     14 C7            19.84     23.69     25.09 C.ar    1  VEB       -0.0197
     15 C8            18.66     24.09     25.74 C.ar    1  VEB       -0.0543
     16 C9            15.92     25.23     26.46 C.ar    1  VEB       -0.0372
     17 C10           15.48     25.55     25.16 C.ar    1  VEB       -0.0543
     18 C11           14.18     25.21     24.73 C.ar    1  VEB       -0.0197
     19 C12            13.3     24.55      25.6 C.ar    1  VEB        0.1206
     20 C13           13.76     24.15     26.86 C.ar    1  VEB       -0.0197
     21 C14           15.05     24.49     27.29 C.ar    1  VEB       -0.0543
     22 H6            16.13     26.11     24.49    H    1  VEB        0.0622
     23 H7            13.83     25.51     23.74    H    1  VEB        0.0654
     24 H8             13.1      23.6     27.53    H    1  VEB        0.0654
     25 H9            15.34      24.2      28.3    H    1  VEB        0.0622
     26 H10           19.34     27.43     25.97    H    1  VEB        0.0622
     27 H11           21.37     26.72     24.82    H    1  VEB        0.0654
     28 H12            20.0     22.64     24.85    H    1  VEB        0.0654
     29 H13           17.92     23.35     26.01    H    1  VEB        0.0622
     30 O             22.03     24.18     24.23  O.3    1  VEB       -0.4893
     31 O1            11.99     24.35     25.23  O.3    1  VEB       -0.4893
     32 C15           23.27     24.88     24.47  C.3    1  VEB        0.1186
     33 C16           24.47     24.01     24.02  C.3    1  VEB        0.1229
     34 H14           23.37      25.1     25.54    H    1  VEB        0.0724
     35 H15           23.28     25.83     23.92    H    1  VEB        0.0724
     36 C17           25.81     24.71     24.36  C.3    1  VEB        0.1186
     37 O2            24.38     22.76     24.69  O.3    1  VEB       -0.3850
     38 H16           24.41     23.87     22.93    H    1  VEB        0.0661
     39 H17           23.45     22.46     24.59    H    1  VEB        0.2101
     40 C18           10.97     24.89      26.1  C.3    1  VEB        0.1186
     41 C19            9.55     24.57     25.55  C.3    1  VEB        0.1230
     42 H18           11.09     25.98     26.16    H    1  VEB        0.0724
     43 H19           11.05     24.48     27.11    H    1  VEB        0.0724
     44 C20            8.51     25.49     26.23  C.3    1  VEB        0.1215
     45 O3              9.2     23.22     25.84  O.3    1  VEB       -0.3850
     46 H20            9.53     24.75     24.47    H    1  VEB        0.0662
     47 H21            8.24     23.15     25.64    H    1  VEB        0.2101
     48 O4             7.18     25.11     25.81  O.3    1  VEB       -0.4617
     49 H22            8.71     26.54     25.96    H    1  VEB        0.0725
     50 H23             8.6      25.4     27.32    H    1  VEB        0.0725
     51 C21            6.13     25.81     26.34  C.2    1  VEB        0.3097
     52 C22            4.77     25.29     25.85  C.3    1  VEB        0.0508
     53 C23             4.0     24.63     27.02  C.3    1  VEB       -0.0525
     54 H25            3.04     24.22     26.67    H    1  VEB        0.0237
     55 H26            3.78     25.36     27.81    H    1  VEB        0.0237
     56 O5             6.26     26.74     27.12  O.2    1  VEB       -0.2506
     57 C24            3.94     26.42      25.2  C.3    1  VEB       -0.0525
     58 H28            4.49     26.87     24.37    H    1  VEB        0.0237
     59 H29            3.72     27.22     25.93    H    1  VEB        0.0237
     60 H30            2.99     26.04     24.82    H    1  VEB        0.0237
     61 H31           32.91      22.7     27.43    H    1  VEB        0.0241
     62 H32           31.17     22.62     27.14    H    1  VEB        0.0241
     63 C25           32.14     22.78     26.65  C.3    1  VEB       -0.0517
     64 H33           31.42     25.21     27.74    H    1  VEB        0.0241
     65 H34            32.3     21.96     25.94    H    1  VEB        0.0241
     66 H35           33.18     25.08     27.68    H    1  VEB        0.0241
     67 C26           32.29     25.24     27.07  C.3    1  VEB       -0.0517
     68 H36           34.76     23.55     26.62    H    1  VEB        0.0622
     69 C27           32.17     24.17     25.94  C.3    1  VEB        0.0151
     70 C28           34.69     23.94     25.61 C.ar    1  VEB       -0.0543
     71 H37           30.19     26.21      26.0    H    1  VEB        0.0622
     72 H38           32.36     26.25     26.64    H    1  VEB        0.0241
     73 C29           30.83      24.3     25.16 C.ar    1  VEB       -0.0372
     74 C30           29.93     25.37     25.37 C.ar    1  VEB       -0.0543
     75 C31           33.43     24.29     25.06 C.ar    1  VEB       -0.0372
     76 H39           36.81     23.78     25.31    H    1  VEB        0.0654
     77 C32           35.87     24.09     24.87 C.ar    1  VEB       -0.0197
     78 C33           30.42     23.26     24.29 C.ar    1  VEB       -0.0543
     79 C34           28.63     25.34     24.83 C.ar    1  VEB       -0.0197
     80 H40            31.1     22.44     24.08    H    1  VEB        0.0622
     81 H41           27.95     26.16     25.05    H    1  VEB        0.0654
     82 C35           29.12     23.23     23.75 C.ar    1  VEB       -0.0197
     83 C36           28.21     24.25     24.05 C.ar    1  VEB        0.1206
     84 C37            33.4     24.81     23.75 C.ar    1  VEB       -0.0543
     85 H42           38.08     26.31     23.72    H    1  VEB        0.0724
     86 C38           35.83     24.62     23.57 C.ar    1  VEB        0.1206
     87 H43            28.8      22.4     23.14    H    1  VEB        0.0654
     88 O6             26.9     24.11     23.62  O.3    1  VEB       -0.4893
     89 H44           32.46      25.1      23.3    H    1  VEB        0.0622
     90 H45           38.43     24.69     24.35    H    1  VEB        0.0724
     91 C39            38.2     25.25     23.44  C.3    1  VEB        0.1186
     92 C40           34.59     24.96     23.01 C.ar    1  VEB       -0.0197
     93 O7            36.98     24.78     22.83  O.3    1  VEB       -0.4893
     94 O8            39.77     23.72     22.37  O.3    1  VEB       -0.3850
     95 H46           40.78     25.64     24.07    H    1  VEB        0.0725
     96 C41            39.4      25.1     22.48  C.3    1  VEB        0.1230
     97 H47           34.55     25.36      22.0    H    1  VEB        0.0654
     98 H48           40.66     23.73     21.96    H    1  VEB        0.2101
     99 C42           40.63     25.87     23.01  C.3    1  VEB        0.1215
    100 H49           39.13      25.5     21.49    H    1  VEB        0.0662
    101 H50           40.45     26.95     22.92    H    1  VEB        0.0725
    102 O9            41.81     25.49     22.26  O.3    1  VEB       -0.4617
    103 H51           44.97     24.26     23.45    H    1  VEB        0.0237
    104 O10           43.12     26.86     23.52  O.2    1  VEB       -0.2506
    105 C43            43.0     26.04     22.63  C.2    1  VEB        0.3097
    106 C44           45.33     25.01     22.73  C.3    1  VEB       -0.0525
    107 H52           45.74     25.85      23.3    H    1  VEB        0.0237
    108 C45           44.17     25.48     21.81  C.3    1  VEB        0.0508
    109 H53            43.8     24.61     21.26    H    1  VEB        0.0408
    110 H54           46.14     24.56     22.14    H    1  VEB        0.0237
    111 C46           44.67     26.53     20.78  C.3    1  VEB       -0.0525
    112 H55           45.05     27.42     21.29    H    1  VEB        0.0237
    113 H56           43.86     26.83     20.11    H    1  VEB        0.0237
    114 H57           45.49     26.12     20.17    H    1  VEB        0.0237
    115 H58           25.98     24.61     25.44    H    1  VEB        0.0724
    116 H59           25.75     25.78     24.12    H    1  VEB        0.0724
    117 C              3.41     22.27     24.37 C.ar    1 CRO0       -0.0476
    118 C1             2.24      21.5     24.35 C.ar    1 CRO0       -0.0586
    119 C2              2.3      20.1     24.37 C.ar    1 CRO0       -0.0615
    120 C3             3.55     19.45     24.41 C.ar    1 CRO0       -0.0617
    121 C4             4.73     20.22     24.44 C.ar    1 CRO0       -0.0615
    122 C5             4.66     21.62     24.42 C.ar    1 CRO0       -0.0586
    123 C6             3.27     23.79     24.35  C.3    1 CRO0       -0.0305
    124 C7             4.58      24.6     24.38  C.3    1 CRO0       -0.0613
    125 H1             2.71     24.08     23.45    H    1 CRO0        0.0311
    126 H2             5.15     24.38     25.29    H    1 CRO0        0.0233
    127 H3             4.37     25.67     24.35    H    1 CRO0        0.0233
    128 H4             5.21     24.36     23.51    H    1 CRO0        0.0233
    129 H5             5.59     22.18     24.44    H    1 CRO0        0.0620
    130 H6              3.6     18.37     24.43    H    1 CRO0        0.0618
    131 H7             5.69     19.72     24.48    H    1 CRO0        0.0618
    132 H8             1.27     21.98     24.31    H    1 CRO0        0.0620
    133 H9             1.39     19.51     24.35    H    1 CRO0        0.0618
    134 C              2.14     21.11     25.04 C.ar    1 CRO1       -0.0476
    135 C1             0.97     20.34     25.02 C.ar    1 CRO1       -0.0586
    136 C2             1.03     18.94     25.04 C.ar    1 CRO1       -0.0615
    137 C3             2.28     18.29     25.08 C.ar    1 CRO1       -0.0617
    138 C4             3.46     19.06     25.11 C.ar    1 CRO1       -0.0615
    139 C5             3.39     20.46     25.09 C.ar    1 CRO1       -0.0586
    140 C6              2.0     22.63     25.02  C.3    1 CRO1       -0.0305
    141 C7             3.31     23.44     25.05  C.3    1 CRO1       -0.0613
    142 H1             1.44     22.92     24.12    H    1 CRO1        0.0311
    143 H2             3.88     23.22     25.96    H    1 CRO1        0.0233
    144 H3              3.1     24.51     25.02    H    1 CRO1        0.0233
    145 H4             3.94      23.2     24.18    H    1 CRO1        0.0233
    146 H5             4.32     21.02     25.11    H    1 CRO1        0.0620
    147 H6             2.33     17.21      25.1    H    1 CRO1        0.0618
    148 H7             4.42     18.56     25.15    H    1 CRO1        0.0618
    149 H8              0.0     20.82     24.98    H    1 CRO1        0.0620
    150 H9             0.12     18.35     25.02    H    1 CRO1        0.0618
@<TRIPOS>BOND
     1   113   111    1
     2   114   111    1
     3   111   112    1
     4   111   108    1
     5   109   108    1
     6   100    96    1
     7   108   105    1
     8   108   106    1
     9    98    94    1
    10    97    92    1
    11   110   106    1
    12   102   105    1
    13   102    99    1
    14    94    96    1
    15    96    99    1
    16    96    91    1
    17   105   104    2
    18   106   107    1
    19   106   103    1
    20    93    91    1
    21    93    86    1
    22   101    99    1
    23    38    33    1
    24    92    86   ar
    25    92    84   ar
    26    99    95    1
    27    87    82    1
    28    89    84    1
    29    91    85    1
    30    91    90    1
    31    86    77   ar
    32    88    83    1
    33    88    36    1
    34    23    18    1
    35    82    83   ar
    36    82    78   ar
    37    84    75   ar
    38    35    32    1
    39    33    36    1
    40    33    32    1
    41    33    37    1
    42    83    79   ar
    43    80    78    1
    44   116    36    1
    45    30    32    1
    46    30    13    1
    47    78    73   ar
    48    36   115    1
    49    58    57    1
    50    46    41    1
    51    32    34    1
    52    22    17    1
    53    39    37    1
    54    18    17   ar
    55    18    19   ar
    56    13    12   ar
    57    13    14   ar
    58    27    12    1
    59    60    57    1
    60    79    81    1
    61    79    74   ar
    62    28    14    1
    63    77    76    1
    64    77    70   ar
    65    75    70   ar
    66    75    69    1
    67    12    11   ar
    68    14    15   ar
    69    73    74   ar
    70    73    69    1
    71    17    16   ar
    72    57    52    1
    73    57    59    1
    74    31    19    1
    75    31    40    1
    76    74    71    1
    77    41    45    1
    78    41    40    1
    79    41    44    1
    80    19    20   ar
    81    70    68    1
    82    47    45    1
    83    11    26    1
    84    11    10   ar
    85    15    29    1
    86    15    10   ar
    87    48    44    1
    88    48    51    1
    89    52    51    1
    90    52    53    1
    91    69    63    1
    92    69    67    1
    93    65    63    1
    94    49    44    1
    95     5     2    1
    96    10     1    1
    97    40    42    1
    98    40    43    1
    99    44    50    1
   100    51    56    2
   101    16     1    1
   102    16    21   ar
   103    72    67    1
   104    63    62    1
   105    63    61    1
   106    54    53    1
   107    20    21   ar
   108    20    24    1
   109     1     2    1
   110     1     6    1
   111    53    55    1
   112    67    66    1
   113    67    64    1
   114     2     3    1
   115     2     4    1
   116    21    25    1
   117     6     8    1
   118     6     7    1
   119     6     9    1
   120   125   123    1
   121   128   124    1
   122   132   118    1
   123   118   117   ar
   124   118   119   ar
   125   123   117    1
   126   123   124    1
   127   127   124    1
   128   133   119    1
   129   117   122   ar
   130   119   120   ar
   131   124   126    1
   132   120   130    1
   133   120   121   ar
   134   122   121   ar
   135   122   129    1
   136   121   131    1
   137   142   140    1
   138   145   141    1
   139   149   135    1
   140   135   134   ar
   141   135   136   ar
   142   140   134    1
   143   140   141    1
   144   144   141    1
   145   150   136    1
   146   134   139   ar
   147   136   137   ar
   148   141   143    1
   149   137   147    1
   150   137   138   ar
   151   139   138   ar
   152   139   146    1
   153   138   148    1
   154   123    52    1
   155   140    53    1
