@<TRIPOS>MOLECULE
*****
  166   172     1     0     0
SMALL
gas


@<TRIPOS>ATOM
      1 C           -5.1830     1.9970     2.4880 c3         1 VEB       0.014613
      2 C1          -5.3760     3.5320     2.6300 c3         1 VEB      -0.051690
      3 H           -4.5380     4.0040     3.1550 hc         1 VEB       0.024275
      4 H1          -6.2780     3.7680     3.2090 hc         1 VEB       0.024275
      5 H2          -5.4780     4.0230     1.6550 hc         1 VEB       0.024275
      6 C2          -4.8370     1.4730     3.9090 c3         1 VEB      -0.051690
      7 H3          -3.8570     1.8390     4.2420 hc         1 VEB       0.024275
      8 H4          -4.8000     0.3770     3.9420 hc         1 VEB       0.024275
      9 H5          -5.5650     1.8060     4.6570 hc         1 VEB       0.024275
     10 C3          -3.9570     1.6190     1.6150 ca         1 VEB      -0.037775
     11 C4          -2.9250     2.5370     1.3350 ca         1 VEB      -0.055555
     12 C5          -1.7320     2.1430     0.7080 ca         1 VEB      -0.031489
     13 C6          -1.5320     0.8160     0.3430 ca         1 VEB       0.075048
     14 C7          -2.5660    -0.0980     0.5540 ca         1 VEB      -0.031489
     15 C8          -3.7570     0.2930     1.1900 ca         1 VEB      -0.055555
     16 C9          -6.5440     1.4650     1.9620 ca         1 VEB      -0.037775
     17 C10         -6.9510     1.7150     0.6380 ca         1 VEB      -0.055555
     18 C11         -8.2390     1.3690     0.1910 ca         1 VEB      -0.031489
     19 C12         -9.1620     0.7840     1.0580 ca         1 VEB       0.075048
     20 C13         -8.7600     0.4800     2.3550 ca         1 VEB      -0.031489
     21 C14         -7.4730     0.8210     2.8000 ca         1 VEB      -0.055555
     22 H6          -6.2730     2.2050    -0.0600 ha         1 VEB       0.062690
     23 H7          -8.5250     1.5810    -0.8360 ha         1 VEB       0.065049
     24 H8          -9.4200    -0.0360     3.0440 ha         1 VEB       0.065049
     25 H9          -7.2320     0.5810     3.8320 ha         1 VEB       0.062690
     26 H10         -3.0050     3.5800     1.6300 ha         1 VEB       0.062690
     27 H11         -0.9770     2.9010     0.5290 ha         1 VEB       0.065049
     28 H12         -2.4380    -1.1350     0.2560 ha         1 VEB       0.065049
     29 H13         -4.5170    -0.4640     1.3800 ha         1 VEB       0.062690
     30 O           -0.3890     0.3180    -0.2300 os         1 VEB      -0.343341
     31 O1         -10.3990     0.4870     0.5450 os         1 VEB      -0.343341
     32 C15          0.8270     1.0320     0.0680 c3         1 VEB       0.081548
     33 C16          2.0280     0.1740    -0.3710 c3         1 VEB       0.101658
     34 H14          0.8870     1.2120     1.1490 h1         1 VEB       0.060074
     35 H15          0.8390     1.9820    -0.4780 h1         1 VEB       0.060074
     36 C17          3.3660     0.8680    -0.0490 c3         1 VEB       0.081548
     37 O2           1.9700    -1.0810     0.3300 oh         1 VEB      -0.388268
     38 H16          1.9620    -0.0630    -1.4380 h1         1 VEB       0.065008
     39 H17          1.0750    -1.4350     0.1720 ho         1 VEB       0.210686
     40 C18        -11.5020     0.7770     1.4250 c3         1 VEB       0.081550
     41 C19        -12.8350     0.3720     0.7610 c3         1 VEB       0.101772
     42 H18        -11.5010     1.8540     1.6340 h1         1 VEB       0.060074
     43 H19        -11.4050     0.2170     2.3610 h1         1 VEB       0.060074
     44 C20        -14.0240     0.9590     1.5360 c3         1 VEB       0.084611
     45 O3         -12.9480    -1.0600     0.7720 oh         1 VEB      -0.388266
     46 H20        -12.8620     0.6830    -0.2890 h1         1 VEB       0.065010
     47 H21        -13.8530    -1.2740     0.4830 ho         1 VEB       0.210686
     48 O4         -15.2720     0.6080     0.8890 os         1 VEB      -0.312729
     49 H22        -13.9410     2.0520     1.5710 h1         1 VEB       0.060189
     50 H23        -14.0320     0.5500     2.5540 h1         1 VEB       0.060189
     51 C21        -16.3620     1.0870     1.5530 c          1 VEB       0.267479
     52 C22        -17.7100     0.8240     0.8660 c3         1 VEB       0.060684
     53 C23        -18.5390    -0.2540     1.6700 c3         1 VEB      -0.031185
     54 H25        -19.5320    -0.2610     1.2080 hc         1 VEB       0.028391
     55 H26        -18.7170     0.1310     2.6860 hc         1 VEB       0.028391
     56 O5         -16.2740     1.6660     2.6330 o          1 VEB      -0.265950
     57 C24        -18.5020     2.1660     1.1020 c3         1 VEB      -0.049575
     58 H28        -17.9770     3.0280     0.6790 hc         1 VEB       0.024164
     59 H29        -18.6410     2.3750     2.1700 hc         1 VEB       0.024164
     60 H30        -19.5030     2.1250     0.6570 hc         1 VEB       0.024164
     61 H31         10.4620    -1.0030     3.1550 hc         1 VEB       0.024275
     62 H32          8.7190    -1.0510     2.9580 hc         1 VEB       0.024275
     63 C25          9.6620    -0.9420     2.4080 c3         1 VEB      -0.051690
     64 H33          9.0610     1.5200     3.3920 hc         1 VEB       0.024275
     65 H34          9.7670    -1.8160     1.7540 hc         1 VEB       0.024275
     66 H35         10.8090     1.4100     3.2200 hc         1 VEB       0.024275
     67 C26          9.8740     1.5230     2.6560 c3         1 VEB      -0.051690
     68 H36         12.2770    -0.5750     2.0700 ha         1 VEB       0.062690
     69 C27          9.6990     0.3930     1.6060 c3         1 VEB       0.014613
     70 C28         12.1870    -0.0540     1.1190 ca         1 VEB      -0.055555
     71 H37          7.6430     2.3490     1.7370 ha         1 VEB       0.062690
     72 H38          9.9060     2.5130     2.1860 hc         1 VEB       0.024275
     73 C29          8.3350     0.4760     0.8630 ca         1 VEB      -0.037775
     74 C30          7.4010     1.5030     1.1000 ca         1 VEB      -0.055555
     75 C31         10.9490     0.4730     0.6940 ca         1 VEB      -0.037775
     76 H39         14.2630    -0.3930     0.7130 ha         1 VEB       0.065049
     77 C32         13.3530     0.0770     0.3530 ca         1 VEB      -0.031489
     78 C33          7.9380    -0.5510    -0.0140 ca         1 VEB      -0.055555
     79 C34          6.1030     1.4590     0.5640 ca         1 VEB      -0.031489
     80 H40          8.6250    -1.3580    -0.2620 ha         1 VEB       0.062690
     81 H41          5.4250     2.2730     0.7980 ha         1 VEB       0.065049
     82 C35          6.6390    -0.5940    -0.5460 ca         1 VEB      -0.031489
     83 C36          5.7000     0.3850    -0.2240 ca         1 VEB       0.075048
     84 C37         10.9370     1.1470    -0.5380 ca         1 VEB      -0.055555
     85 H42         15.5350     2.3940    -0.8270 h1         1 VEB       0.060074
     86 C38         13.3220     0.7660    -0.8520 ca         1 VEB       0.075048
     87 H43          6.3510    -1.4250    -1.1860 ha         1 VEB       0.065049
     88 O6           4.4410     0.1960    -0.7300 os         1 VEB      -0.343341
     89 H44         10.0200     1.5880    -0.9220 ha         1 VEB       0.062690
     90 H45         15.8030     0.7840    -0.1040 h1         1 VEB       0.060074
     91 C39         15.6210     1.3220    -1.0390 c3         1 VEB       0.081550
     92 C40         12.1070     1.2760    -1.3070 ca         1 VEB      -0.031489
     93 O7          14.4040     0.9000    -1.6800 os         1 VEB      -0.343341
     94 O8          17.0540    -0.3550    -2.0470 oh         1 VEB      -0.388266
     95 H46         18.3670     1.3760    -0.5220 h1         1 VEB       0.060189
     96 C41         16.8000     1.0610    -1.9890 c3         1 VEB       0.101772
     97 H47         12.0630     1.7870    -2.2660 ha         1 VEB       0.065049
     98 H48         17.8590    -0.4660    -2.5840 ho         1 VEB       0.210686
     99 C42         18.0780     1.7570    -1.5100 c3         1 VEB       0.084600
    100 H49         16.5520     1.3730    -3.0100 h1         1 VEB       0.065010
    101 H50         17.9340     2.8420    -1.4690 h1         1 VEB       0.060189
    102 O9          19.1330     1.4490    -2.4460 os         1 VEB      -0.312968
    103 O10         20.5680     2.6380    -1.1120 o          1 VEB      -0.266308
    104 C43         20.3560     1.9480    -2.0960 c          1 VEB       0.263739
    105 C44         21.6730     0.0020    -2.9900 c3         1 VEB      -0.034643
    106 H52         21.1080    -0.4080    -2.1420 hc         1 VEB       0.028080
    107 C45         21.4030     1.5160    -3.1150 c3         1 VEB       0.042887
    108 H53         20.9990     1.7750    -4.1010 hc         1 VEB       0.040667
    109 H54         22.7300    -0.1820    -2.7530 hc         1 VEB       0.028080
    110 C46         22.6900     2.3210    -2.9330 c3         1 VEB      -0.053052
    111 H55         23.1420     2.1400    -1.9510 hc         1 VEB       0.023855
    112 H56         22.4940     3.3960    -3.0130 hc         1 VEB       0.023855
    113 H57         23.4250     2.0550    -3.7000 hc         1 VEB       0.023855
    114 H58          3.5260     0.8360     1.0360 h1         1 VEB       0.060074
    115 H59          3.3420     1.9070    -0.3970 h1         1 VEB       0.060074
    116 C47        -17.6530    -0.7730    -1.2700 ca         1 CRO      -0.044104
    117 C50        -18.8540    -1.3830    -1.6810 ca         1 CRO      -0.058737
    118 C53        -18.8700    -2.6920    -2.1640 ca         1 CRO      -0.061983
    119 C56        -17.6830    -3.4100    -2.2590 ca         1 CRO      -0.062248
    120 C59        -16.4800    -2.8110    -1.8900 ca         1 CRO      -0.061983
    121 C62        -16.4630    -1.4990    -1.4060 ca         1 CRO      -0.058737
    122 C65        -17.6980     0.6400    -0.7100 c3         1 CRO      -0.004225
    123 C68        -16.7280     1.5620    -1.4770 c3         1 CRO      -0.057363
    124 H24        -18.6830     1.0110    -1.0390 hc         1 CRO       0.036050
    125 H60        -15.6830     1.2520    -1.3970 hc         1 CRO       0.023692
    126 H63        -16.7970     2.6000    -1.1380 hc         1 CRO       0.023692
    127 H66        -16.9700     1.5560    -2.5470 hc         1 CRO       0.023692
    128 H69        -15.5100    -1.0620    -1.1300 ha         1 CRO       0.062571
    129 H72        -17.6960    -4.4340    -2.6230 ha         1 CRO       0.062269
    130 H75        -15.5530    -3.3720    -1.9730 ha         1 CRO       0.062279
    131 H78        -19.7980    -0.8460    -1.6110 ha         1 CRO       0.062571
    132 H81        -19.8110    -3.1530    -2.4540 ha         1 CRO       0.062279
    133 C48        -19.1510    -2.7190     2.1650 ca         1 CRO      -0.045151
    134 C51        -20.3240    -2.7390     1.3870 ca         1 CRO      -0.058773
    135 C54        -21.3370    -3.6810     1.6010 ca         1 CRO      -0.061984
    136 C57        -21.1920    -4.6490     2.5860 ca         1 CRO      -0.062248
    137 C60        -20.0370    -4.6680     3.3580 ca         1 CRO      -0.061984
    138 C63        -19.0320    -3.7140     3.1520 ca         1 CRO      -0.058773
    139 C66        -18.0180    -1.7170     1.8470 c3         1 CRO      -0.017979
    140 C69        -16.8750    -1.7740     2.8750 c3         1 CRO      -0.058380
    141 H27        -17.5940    -2.0790     0.9130 hc         1 CRO       0.034972
    142 H61        -17.2200    -1.4860     3.8740 hc         1 CRO       0.023657
    143 H64        -16.0430    -1.1270     2.6070 hc         1 CRO       0.023657
    144 H67        -16.4450    -2.7800     2.9350 hc         1 CRO       0.023657
    145 H70        -18.1490    -3.7920     3.7790 ha         1 CRO       0.062571
    146 H73        -21.9690    -5.3910     2.7440 ha         1 CRO       0.062269
    147 H76        -19.9070    -5.4320     4.1200 ha         1 CRO       0.062279
    148 H79        -20.4700    -2.0290     0.5800 ha         1 CRO       0.062571
    149 H82        -22.2320    -3.6630     0.9840 ha         1 CRO       0.062279
    150 C49         21.2420    -2.2730    -3.9820 ca         1 CRO      -0.045162
    151 C52         20.0040    -2.9350    -3.9730 ca         1 CRO      -0.058773
    152 C55         19.9290    -4.3030    -3.7040 ca         1 CRO      -0.061984
    153 C58         21.0880    -5.0270    -3.4390 ca         1 CRO      -0.062248
    154 C61         22.3230    -4.3840    -3.4390 ca         1 CRO      -0.061984
    155 C64         22.4010    -3.0150    -3.7050 ca         1 CRO      -0.058773
    156 C67         21.2950    -0.7800    -4.2670 c3         1 CRO      -0.018269
    157 C70         22.2430    -0.4690    -5.4330 c3         1 CRO      -0.058391
    158 H51         20.2900    -0.4610    -4.5780 hc         1 CRO       0.034961
    159 H62         23.2880    -0.6700    -5.1760 hc         1 CRO       0.023656
    160 H65         22.1750     0.5820    -5.7300 hc         1 CRO       0.023656
    161 H68         21.9940    -1.0750    -6.3120 hc         1 CRO       0.023656
    162 H71         23.3760    -2.5360    -3.6920 ha         1 CRO       0.062571
    163 H74         21.0280    -6.0920    -3.2310 ha         1 CRO       0.062269
    164 H77         23.2280    -4.9490    -3.2310 ha         1 CRO       0.062279
    165 H80         19.0840    -2.3920    -4.1780 ha         1 CRO       0.062571
    166 H83         18.9630    -4.8010    -3.7000 ha         1 CRO       0.062279
@<TRIPOS>BOND
     1   112   110 1   
     2   113   110 1   
     3   110   111 1   
     4   110   107 1   
     5   108   107 1   
     6   100    96 1   
     7   107   104 1   
     8   107   105 1   
     9    98    94 1   
    10    97    92 1   
    11   109   105 1   
    12   102   104 1   
    13   102    99 1   
    14    94    96 1   
    15    96    99 1   
    16    96    91 1   
    17   104   103 2   
    18   105   106 1   
    19    93    91 1   
    20    93    86 1   
    21   101    99 1   
    22    38    33 1   
    23    92    86 ar  
    24    92    84 ar  
    25    99    95 1   
    26    87    82 1   
    27    89    84 1   
    28    91    85 1   
    29    91    90 1   
    30    86    77 ar  
    31    88    83 1   
    32    88    36 1   
    33    23    18 1   
    34    82    83 ar  
    35    82    78 ar  
    36    84    75 ar  
    37    35    32 1   
    38    33    36 1   
    39    33    32 1   
    40    33    37 1   
    41    83    79 ar  
    42    80    78 1   
    43   115    36 1   
    44    30    32 1   
    45    30    13 1   
    46    78    73 ar  
    47    36   114 1   
    48    58    57 1   
    49    46    41 1   
    50    32    34 1   
    51    22    17 1   
    52    39    37 1   
    53    18    17 ar  
    54    18    19 ar  
    55    13    12 ar  
    56    13    14 ar  
    57    27    12 1   
    58    60    57 1   
    59    79    81 1   
    60    79    74 ar  
    61    28    14 1   
    62    77    76 1   
    63    77    70 ar  
    64    75    70 ar  
    65    75    69 1   
    66    12    11 ar  
    67    14    15 ar  
    68    73    74 ar  
    69    73    69 1   
    70    17    16 ar  
    71    57    52 1   
    72    57    59 1   
    73    31    19 1   
    74    31    40 1   
    75    74    71 1   
    76    41    45 1   
    77    41    40 1   
    78    41    44 1   
    79    19    20 ar  
    80    70    68 1   
    81    47    45 1   
    82    11    26 1   
    83    11    10 ar  
    84    15    29 1   
    85    15    10 ar  
    86    48    44 1   
    87    48    51 1   
    88    52    51 1   
    89    52    53 1   
    90    69    63 1   
    91    69    67 1   
    92    65    63 1   
    93    49    44 1   
    94     5     2 1   
    95    10     1 1   
    96    40    42 1   
    97    40    43 1   
    98    44    50 1   
    99    51    56 2   
   100    16     1 1   
   101    16    21 ar  
   102    72    67 1   
   103    63    62 1   
   104    63    61 1   
   105    54    53 1   
   106    20    21 ar  
   107    20    24 1   
   108     1     2 1   
   109     1     6 1   
   110    53    55 1   
   111    67    66 1   
   112    67    64 1   
   113     2     3 1   
   114     2     4 1   
   115    21    25 1   
   116     6     8 1   
   117     6     7 1   
   118     6     9 1   
   119   124   122 1   
   120   127   123 1   
   121   131   117 1   
   122   117   116 ar  
   123   117   118 ar  
   124   122   116 1   
   125   122   123 1   
   126   126   123 1   
   127   132   118 1   
   128   116   121 ar  
   129   118   119 ar  
   130   123   125 1   
   131   119   129 1   
   132   119   120 ar  
   133   121   120 ar  
   134   121   128 1   
   135   120   130 1   
   136   141   139 1   
   137   144   140 1   
   138   148   134 1   
   139   134   133 ar  
   140   134   135 ar  
   141   139   133 1   
   142   139   140 1   
   143   143   140 1   
   144   149   135 1   
   145   133   138 ar  
   146   135   136 ar  
   147   140   142 1   
   148   136   146 1   
   149   136   137 ar  
   150   138   137 ar  
   151   138   145 1   
   152   137   147 1   
   153   158   156 1   
   154   161   157 1   
   155   165   151 1   
   156   151   150 ar  
   157   151   152 ar  
   158   156   150 1   
   159   156   157 1   
   160   160   157 1   
   161   166   152 1   
   162   150   155 ar  
   163   152   153 ar  
   164   157   159 1   
   165   153   163 1   
   166   153   154 ar  
   167   155   154 ar  
   168   155   162 1   
   169   154   164 1   
   170   122    52 1   
   171   139    53 1   
   172   156   105 1   
@<TRIPOS>SUBSTRUCTURE
     1 VEB         1 TEMP              0 ****  ****    0 ROOT
