@<TRIPOS>MOLECULE
*****
 150 155 0 0 0
SMALL
GASTEIGER

@<TRIPOS>ATOM
      1 C          -6.8443    1.6804    2.5757 C.3     1  VEB1        0.0151
      2 C1         -7.0394    3.2165    2.7127 C.3     1  VEB1       -0.0517
      3 H          -6.1856    3.6954    3.2062 H       1  VEB1        0.0241
      4 H1         -7.9242    3.4514    3.3181 H       1  VEB1        0.0241
      5 H2         -7.1732    3.7029    1.7390 H       1  VEB1        0.0241
      6 C2         -6.4494    1.1741    3.9898 C.3     1  VEB1       -0.0517
      7 H3         -5.4761    1.5759    4.2988 H       1  VEB1        0.0241
      8 H4         -6.3713    0.0807    4.0275 H       1  VEB1        0.0241
      9 H5         -7.1763    1.4842    4.7501 H       1  VEB1        0.0241
     10 C3         -5.6589    1.2947    1.6569 C.ar    1  VEB1       -0.0372
     11 C4         -4.6529    2.2136    1.3080 C.ar    1  VEB1       -0.0543
     12 C5         -3.5028    1.8149    0.6123 C.ar    1  VEB1       -0.0197
     13 C6         -3.3235    0.4823    0.2535 C.ar    1  VEB1        0.1206
     14 C7         -4.3367   -0.4332    0.5332 C.ar    1  VEB1       -0.0197
     15 C8         -5.4849   -0.0366    1.2350 C.ar    1  VEB1       -0.0543
     16 C9         -8.2095    1.1329    2.0903 C.ar    1  VEB1       -0.0372
     17 C10        -8.6880    1.4611    0.8058 C.ar    1  VEB1       -0.0543
     18 C11        -9.9814    1.1077    0.4000 C.ar    1  VEB1       -0.0197
     19 C12       -10.8269    0.4318    1.2738 C.ar    1  VEB1        0.1206
     20 C13       -10.3503    0.0260    2.5155 C.ar    1  VEB1       -0.0197
     21 C14        -9.0585    0.3795    2.9217 C.ar    1  VEB1       -0.0543
     22 H6         -8.0615    2.0220    0.1145 H       1  VEB1        0.0622
     23 H7        -10.3346    1.3869   -0.5887 H       1  VEB1        0.0654
     24 H8        -10.9699   -0.5664    3.1821 H       1  VEB1        0.0654
     25 H9         -8.7492    0.0649    3.9145 H       1  VEB1        0.0622
     26 H10        -4.7205    3.2597    1.5940 H       1  VEB1        0.0622
     27 H11        -2.7619    2.5708    0.3743 H       1  VEB1        0.0654
     28 H12        -4.2240   -1.4733    0.2377 H       1  VEB1        0.0654
     29 H13        -6.2323   -0.7913    1.4753 H       1  VEB1        0.0622
     30 O          -2.2121   -0.0140   -0.3787 O.3     1  VEB1       -0.4893
     31 O1        -12.0965    0.1511    0.8432 O.3     1  VEB1       -0.4893
     32 C15        -0.9837    0.6707   -0.0706 C.3     1  VEB1        0.1186
     33 C16         0.1988   -0.2084   -0.5084 C.3     1  VEB1        0.1229
     34 H14        -0.9211    0.8438    1.0118 H       1  VEB1        0.0724
     35 H15        -0.9502    1.6237   -0.6102 H       1  VEB1        0.0724
     36 C17         1.5371    0.4660   -0.1598 C.3     1  VEB1        0.1186
     37 O2          0.1113   -1.4678    0.1792 O.3     1  VEB1       -0.3850
     38 H16         0.1410   -0.4323   -1.5793 H       1  VEB1        0.0661
     39 H17        -0.7905   -1.8016    0.0133 H       1  VEB1        0.2101
     40 C18       -13.1019    0.6429    1.7509 C.3     1  VEB1        0.1186
     41 C19       -14.4893    0.4009    1.1437 C.3     1  VEB1        0.1230
     42 H18       -12.9450    1.7180    1.9046 H       1  VEB1        0.0724
     43 H19       -13.0364    0.1156    2.7093 H       1  VEB1        0.0724
     44 C20       -15.5702    1.1860    1.8942 C.3     1  VEB1        0.1215
     45 O3        -14.8062   -0.9995    1.2257 O.3     1  VEB1       -0.3850
     46 H20       -14.4951    0.6584    0.0784 H       1  VEB1        0.0662
     47 H21       -15.6991   -1.0986    0.8490 H       1  VEB1        0.2101
     48 O4        -16.8309    0.9345    1.2424 O.3     1  VEB1       -0.4617
     49 H22       -15.3556    2.2601    1.8659 H       1  VEB1        0.0725
     50 H23       -15.6383    0.8394    2.9324 H       1  VEB1        0.0725
     51 C21       -17.9042    1.5465    1.8246 C.2     1  VEB1        0.3097
     52 C22       -19.1758    1.1567    1.0853 C.3     1  VEB1        0.0508
     53 C23       -19.5735   -0.2715    1.5002 C.3     1  VEB1       -0.0525
     54 H25       -19.8717   -0.2681    2.5585 H       1  VEB1        0.0237
     55 H26       -18.6760   -0.9006    1.4575 H       1  VEB1        0.0237
     56 O5        -17.8439    2.2827    2.7984 O.2     1  VEB1       -0.2506
     57 C24       -20.2812    2.1780    1.3409 C.3     1  VEB1       -0.0525
     58 H27       -18.9303    1.1981    0.0176 H       1  VEB1        0.0408
     59 H28       -19.9348    3.1907    1.1056 H       1  VEB1        0.0237
     60 H29       -20.5963    2.1737    2.3900 H       1  VEB1        0.0237
     61 H30       -21.1590    1.9769    0.7192 H       1  VEB1        0.0237
     62 H31         8.6373   -1.3619    3.1324 H       1  VEB1        0.0241
     63 H32         6.8887   -1.4077    2.9772 H       1  VEB1        0.0241
     64 C25         7.8200   -1.3179    2.4036 C.3     1  VEB1       -0.0517
     65 H33         7.2413    1.1581    3.3450 H       1  VEB1        0.0241
     66 H34         7.9048   -2.2083    1.7692 H       1  VEB1        0.0241
     67 H35         8.9865    1.0534    3.1307 H       1  VEB1        0.0241
     68 C26         8.0366    1.1497    2.5899 C.3     1  VEB1       -0.0517
     69 H36        10.4009   -1.1140    1.8845 H       1  VEB1        0.0622
     70 C27         7.8439   -0.0033    1.5698 C.3     1  VEB1        0.0151
     71 C28        10.2951   -0.5391    0.9685 C.ar    1  VEB1       -0.0543
     72 H37         5.7719    1.9323    1.7055 H       1  VEB1        0.0622
     73 H38         8.0499    2.1303    2.0989 H       1  VEB1        0.0241
     74 C29         6.4746    0.0605    0.8398 C.ar    1  VEB1       -0.0372
     75 C30         5.5382    1.0851    1.0666 C.ar    1  VEB1       -0.0543
     76 C31         9.0689    0.0652    0.6237 C.ar    1  VEB1       -0.0372
     77 H39        12.3410   -0.9374    0.4391 H       1  VEB1        0.0654
     78 C32        11.4295   -0.4184    0.1559 C.ar    1  VEB1       -0.0197
     79 C33         6.0895   -0.9727   -0.0361 C.ar    1  VEB1       -0.0543
     80 C34         4.2509    1.0417    0.5083 C.ar    1  VEB1       -0.0197
     81 H40         6.7820   -1.7781   -0.2745 H       1  VEB1        0.0622
     82 H41         3.5707    1.8576    0.7289 H       1  VEB1        0.0654
     83 C35         4.8019   -1.0166   -0.5893 C.ar    1  VEB1       -0.0197
     84 C36         3.8626   -0.0324   -0.2872 C.ar    1  VEB1        0.1206
     85 C37         9.0353    0.8066   -0.5716 C.ar    1  VEB1       -0.0543
     86 H42        13.5943    2.0515   -1.3002 H       1  VEB1        0.0724
     87 C38        11.3762    0.3390   -1.0081 C.ar    1  VEB1        0.1206
     88 H43         4.5219   -1.8476   -1.2322 H       1  VEB1        0.0654
     89 O6          2.6142   -0.2170   -0.8211 O.3     1  VEB1       -0.4893
     90 H44         8.1215    1.3045   -0.8898 H       1  VEB1        0.0622
     91 H45        13.7357    0.6590   -0.2023 H       1  VEB1        0.0724
     92 C39        13.6392    0.9571   -1.2522 C.3     1  VEB1        0.1186
     93 C40        10.1719    0.9266   -1.3857 C.ar    1  VEB1       -0.0197
     94 O7         12.4364    0.4564   -1.8645 O.3     1  VEB1       -0.4893
     95 O8         15.0174   -0.9609   -1.7693 O.3     1  VEB1       -0.3850
     96 H46        16.4088    0.8762   -0.6042 H       1  VEB1        0.0725
     97 C41        14.8548    0.4422   -2.0395 C.3     1  VEB1        0.1230
     98 H47        10.1122    1.4878   -2.3141 H       1  VEB1        0.0654
     99 H48        15.8812   -1.2288   -2.1310 H       1  VEB1        0.2101
    100 C42        16.1356    1.1748   -1.6226 C.3     1  VEB1        0.1215
    101 H49        14.6851    0.5363   -3.1179 H       1  VEB1        0.0662
    102 H50        15.9908    2.2594   -1.6603 H       1  VEB1        0.0725
    103 O9         17.1871    0.8555   -2.5642 O.3     1  VEB1       -0.4617
    104 H51        20.6043   -0.8014   -2.0109 H       1  VEB1        0.0237
    105 O10        18.7054    0.9804   -0.8658 O.2     1  VEB1       -0.2506
    106 C43        18.4509    0.8263   -2.0557 C.2     1  VEB1        0.3097
    107 C44        20.8055    0.1585   -2.4978 C.3     1  VEB1       -0.0525
    108 H52        21.1923    0.8214   -1.7136 H       1  VEB1        0.0237
    109 C45        19.5347    0.7466   -3.1478 C.3     1  VEB1        0.0508
    110 H54        21.6138    0.0220   -3.2221 H       1  VEB1        0.0237
    111 C46        19.8406    2.2180   -3.5123 C.3     1  VEB1       -0.0525
    112 H55        20.0063    2.8265   -2.6148 H       1  VEB1        0.0237
    113 H56        19.0059    2.6722   -4.0580 H       1  VEB1        0.0237
    114 H57        20.7424    2.3052   -4.1278 H       1  VEB1        0.0237
    115 H58         1.6733    0.4282    0.9287 H       1  VEB1        0.0724
    116 H59         1.5320    1.5068   -0.5033 H       1  VEB1        0.0724
    117 C         -21.0025   -2.3451    1.1238 C.ar    1  CRO01      -0.0476
    118 C1        -22.3302   -2.7302    1.3681 C.ar    1  CRO01      -0.0586
    119 C2        -22.6366   -4.0400    1.7459 C.ar    1  CRO01      -0.0615
    120 C3        -21.6215   -4.9830    1.8865 C.ar    1  CRO01      -0.0617
    121 C4        -20.3001   -4.6189    1.6436 C.ar    1  CRO01      -0.0615
    122 C5        -19.9933   -3.3123    1.2578 C.ar    1  CRO01      -0.0586
    123 C6        -20.7011   -0.9224    0.6646 C.3     1  CRO01      -0.0305
    124 C7        -20.3982   -0.9336   -0.8375 C.3     1  CRO01      -0.0613
    125 H1        -21.6090   -0.3237    0.8141 H       1  CRO01       0.0311
    126 H2        -19.4290   -1.3990   -1.0480 H       1  CRO01       0.0233
    127 H3        -20.3839    0.0813   -1.2464 H       1  CRO01       0.0233
    128 H4        -21.1629   -1.4905   -1.3912 H       1  CRO01       0.0233
    129 H5        -18.9547   -3.0668    1.0525 H       1  CRO01       0.0620
    130 H6        -21.8600   -6.0021    2.1784 H       1  CRO01       0.0618
    131 H7        -19.5061   -5.3541    1.7461 H       1  CRO01       0.0618
    132 H8        -23.1417   -2.0147    1.2550 H       1  CRO01       0.0620
    133 H9        -23.6698   -4.3256    1.9249 H       1  CRO01       0.0618
    134 C          18.7481   -1.5202   -4.2008 C.ar    1  CRO11      -0.0476
    135 C1         17.4098   -1.9430   -4.2271 C.ar    1  CRO11      -0.0586
    136 C2         17.0764   -3.2871   -4.0455 C.ar    1  CRO11      -0.0615
    137 C3         18.0777   -4.2341   -3.8512 C.ar    1  CRO11      -0.0617
    138 C4         19.4117   -3.8381   -3.8454 C.ar    1  CRO11      -0.0615
    139 C5         19.7442   -2.4933   -4.0237 C.ar    1  CRO11      -0.0586
    140 C6         19.0770   -0.0458   -4.4279 C.3     1  CRO11      -0.0305
    141 C7         20.0402    0.0850   -5.6257 C.3     1  CRO11      -0.0613
    142 H1         18.1501    0.4292   -4.7815 H       1  CRO11       0.0311
    143 H2         21.0512   -0.2617   -5.3922 H       1  CRO11       0.0233
    144 H3         20.1108    1.1222   -5.9676 H       1  CRO11       0.0233
    145 H4         19.6813   -0.5032   -6.4790 H       1  CRO11       0.0233
    146 H5         20.7972   -2.2229   -4.0326 H       1  CRO11       0.0620
    147 H6         17.8196   -5.2811   -3.7162 H       1  CRO11       0.0618
    148 H7         20.1972   -4.5773   -3.7093 H       1  CRO11       0.0618
    149 H8         16.6089   -1.2286   -4.4072 H       1  CRO11       0.0620
    150 H9         16.0339   -3.5960   -4.0659 H       1  CRO11       0.0618
@<TRIPOS>BOND
     1   113   111    1
     2   114   111    1
     3   111   112    1
     4   111   109    1
     5   101    97    1
     6   109   106    1
     7   109   107    1
     8    99    95    1
     9    98    93    1
    10   110   107    1
    11   103   106    1
    12   103   100    1
    13    95    97    1
    14    97   100    1
    15    97    92    1
    16   106   105    2
    17   107   108    1
    18   107   104    1
    19    94    92    1
    20    94    87    1
    21   102   100    1
    22    38    33    1
    23    93    87   ar
    24    93    85   ar
    25   100    96    1
    26    88    83    1
    27    90    85    1
    28    92    86    1
    29    92    91    1
    30    87    78   ar
    31    89    84    1
    32    89    36    1
    33    23    18    1
    34    83    84   ar
    35    83    79   ar
    36    85    76   ar
    37    35    32    1
    38    33    36    1
    39    33    32    1
    40    33    37    1
    41    84    80   ar
    42    81    79    1
    43   116    36    1
    44    30    32    1
    45    30    13    1
    46    79    74   ar
    47    36   115    1
    48    59    57    1
    49    46    41    1
    50    32    34    1
    51    22    17    1
    52    39    37    1
    53    18    17   ar
    54    18    19   ar
    55    13    12   ar
    56    13    14   ar
    57    27    12    1
    58    61    57    1
    59    80    82    1
    60    80    75   ar
    61    28    14    1
    62    78    77    1
    63    78    71   ar
    64    76    71   ar
    65    76    70    1
    66    12    11   ar
    67    14    15   ar
    68    58    52    1
    69    74    75   ar
    70    74    70    1
    71    17    16   ar
    72    57    52    1
    73    57    60    1
    74    31    19    1
    75    31    40    1
    76    75    72    1
    77    41    45    1
    78    41    40    1
    79    41    44    1
    80    19    20   ar
    81    71    69    1
    82    47    45    1
    83    11    26    1
    84    11    10   ar
    85    15    29    1
    86    15    10   ar
    87    48    44    1
    88    48    51    1
    89    52    51    1
    90    52    53    1
    91    70    64    1
    92    70    68    1
    93    66    64    1
    94    49    44    1
    95     5     2    1
    96    10     1    1
    97    40    42    1
    98    40    43    1
    99    44    50    1
   100    51    56    2
   101    16     1    1
   102    16    21   ar
   103    73    68    1
   104    64    63    1
   105    64    62    1
   106    54    53    1
   107    20    21   ar
   108    20    24    1
   109     1     2    1
   110     1     6    1
   111    53    55    1
   112    68    67    1
   113    68    65    1
   114     2     3    1
   115     2     4    1
   116    21    25    1
   117     6     8    1
   118     6     7    1
   119     6     9    1
   120   125   123    1
   121   128   124    1
   122   132   118    1
   123   118   117   ar
   124   118   119   ar
   125   123   117    1
   126   123   124    1
   127   127   124    1
   128   133   119    1
   129   117   122   ar
   130   119   120   ar
   131   124   126    1
   132   120   130    1
   133   120   121   ar
   134   122   121   ar
   135   122   129    1
   136   121   131    1
   137   142   140    1
   138   145   141    1
   139   149   135    1
   140   135   134   ar
   141   135   136   ar
   142   140   134    1
   143   140   141    1
   144   144   141    1
   145   150   136    1
   146   134   139   ar
   147   136   137   ar
   148   141   143    1
   149   137   147    1
   150   137   138   ar
   151   139   138   ar
   152   139   146    1
   153   138   148    1
   154   123    53    1
   155   140   109    1
