@<TRIPOS>MOLECULE
*****
  150   155     1     0     0
SMALL
gas


@<TRIPOS>ATOM
      1 C           -6.8440     1.6800     2.5760 c3         1 VEB       0.014609
      2 C1          -7.0390     3.2160     2.7130 c3         1 VEB      -0.051690
      3 H           -6.1860     3.6950     3.2060 hc         1 VEB       0.024276
      4 H1          -7.9240     3.4510     3.3180 hc         1 VEB       0.024276
      5 H2          -7.1730     3.7030     1.7390 hc         1 VEB       0.024276
      6 C2          -6.4490     1.1740     3.9900 c3         1 VEB      -0.051690
      7 H3          -5.4760     1.5760     4.2990 hc         1 VEB       0.024276
      8 H4          -6.3710     0.0810     4.0270 hc         1 VEB       0.024276
      9 H5          -7.1760     1.4840     4.7500 hc         1 VEB       0.024276
     10 C3          -5.6590     1.2950     1.6570 ca         1 VEB      -0.037779
     11 C4          -4.6530     2.2140     1.3080 ca         1 VEB      -0.055557
     12 C5          -3.5030     1.8150     0.6120 ca         1 VEB      -0.031490
     13 C6          -3.3240     0.4820     0.2540 ca         1 VEB       0.075038
     14 C7          -4.3370    -0.4330     0.5330 ca         1 VEB      -0.031490
     15 C8          -5.4850    -0.0370     1.2350 ca         1 VEB      -0.055557
     16 C9          -8.2100     1.1330     2.0900 ca         1 VEB      -0.037779
     17 C10         -8.6880     1.4610     0.8060 ca         1 VEB      -0.055557
     18 C11         -9.9810     1.1080     0.4000 ca         1 VEB      -0.031490
     19 C12        -10.8270     0.4320     1.2740 ca         1 VEB       0.075038
     20 C13        -10.3500     0.0260     2.5150 ca         1 VEB      -0.031490
     21 C14         -9.0590     0.3800     2.9220 ca         1 VEB      -0.055557
     22 H6          -8.0620     2.0220     0.1150 ha         1 VEB       0.062694
     23 H7         -10.3350     1.3870    -0.5890 ha         1 VEB       0.065055
     24 H8         -10.9700    -0.5660     3.1820 ha         1 VEB       0.065055
     25 H9          -8.7490     0.0650     3.9140 ha         1 VEB       0.062694
     26 H10         -4.7210     3.2600     1.5940 ha         1 VEB       0.062694
     27 H11         -2.7620     2.5710     0.3740 ha         1 VEB       0.065055
     28 H12         -4.2240    -1.4730     0.2380 ha         1 VEB       0.065055
     29 H13         -6.2320    -0.7910     1.4750 ha         1 VEB       0.062694
     30 O           -2.2120    -0.0140    -0.3790 os         1 VEB      -0.343351
     31 O1         -12.0970     0.1510     0.8430 os         1 VEB      -0.343351
     32 C15         -0.9840     0.6710    -0.0710 c3         1 VEB       0.081542
     33 C16          0.1990    -0.2080    -0.5080 c3         1 VEB       0.101650
     34 H14         -0.9210     0.8440     1.0120 h1         1 VEB       0.060081
     35 H15         -0.9500     1.6240    -0.6100 h1         1 VEB       0.060081
     36 C17          1.5370     0.4660    -0.1600 c3         1 VEB       0.081542
     37 O2           0.1110    -1.4680     0.1790 oh         1 VEB      -0.388276
     38 H16          0.1410    -0.4320    -1.5790 h1         1 VEB       0.065017
     39 H17         -0.7900    -1.8020     0.0130 ho         1 VEB       0.210692
     40 C18        -13.1020     0.6430     1.7510 c3         1 VEB       0.081544
     41 C19        -14.4890     0.4010     1.1440 c3         1 VEB       0.101764
     42 H18        -12.9450     1.7180     1.9050 h1         1 VEB       0.060081
     43 H19        -13.0360     0.1160     2.7090 h1         1 VEB       0.060081
     44 C20        -15.5700     1.1860     1.8940 c3         1 VEB       0.084596
     45 O3         -14.8060    -1.0000     1.2260 oh         1 VEB      -0.388274
     46 H20        -14.4950     0.6580     0.0780 h1         1 VEB       0.065019
     47 H21        -15.6990    -1.0990     0.8490 ho         1 VEB       0.210692
     48 O4         -16.8310     0.9340     1.2420 os         1 VEB      -0.312973
     49 H22        -15.3560     2.2600     1.8660 h1         1 VEB       0.060196
     50 H23        -15.6380     0.8390     2.9320 h1         1 VEB       0.060196
     51 C21        -17.9040     1.5460     1.8250 c          1 VEB       0.263728
     52 C22        -19.1760     1.1570     1.0850 c3         1 VEB       0.042890
     53 C23        -19.5730    -0.2720     1.5000 c3         1 VEB      -0.034642
     54 H25        -19.8720    -0.2680     2.5580 hc         1 VEB       0.028082
     55 H26        -18.6760    -0.9010     1.4580 hc         1 VEB       0.028082
     56 O5         -17.8440     2.2830     2.7980 o          1 VEB      -0.266321
     57 C24        -20.2810     2.1780     1.3410 c3         1 VEB      -0.053050
     58 H27        -18.9300     1.1980     0.0180 hc         1 VEB       0.040673
     59 H28        -19.9350     3.1910     1.1060 hc         1 VEB       0.023856
     60 H29        -20.5960     2.1740     2.3900 hc         1 VEB       0.023856
     61 H30        -21.1590     1.9770     0.7190 hc         1 VEB       0.023856
     62 H31          8.6370    -1.3620     3.1320 hc         1 VEB       0.024276
     63 H32          6.8890    -1.4080     2.9770 hc         1 VEB       0.024276
     64 C25          7.8200    -1.3180     2.4040 c3         1 VEB      -0.051690
     65 H33          7.2410     1.1580     3.3450 hc         1 VEB       0.024276
     66 H34          7.9050    -2.2080     1.7690 hc         1 VEB       0.024276
     67 H35          8.9860     1.0530     3.1310 hc         1 VEB       0.024276
     68 C26          8.0370     1.1500     2.5900 c3         1 VEB      -0.051690
     69 H36         10.4010    -1.1140     1.8850 ha         1 VEB       0.062694
     70 C27          7.8440    -0.0030     1.5700 c3         1 VEB       0.014609
     71 C28         10.2950    -0.5390     0.9690 ca         1 VEB      -0.055557
     72 H37          5.7720     1.9320     1.7060 ha         1 VEB       0.062694
     73 H38          8.0500     2.1300     2.0990 hc         1 VEB       0.024276
     74 C29          6.4750     0.0600     0.8400 ca         1 VEB      -0.037779
     75 C30          5.5380     1.0850     1.0670 ca         1 VEB      -0.055557
     76 C31          9.0690     0.0650     0.6240 ca         1 VEB      -0.037779
     77 H39         12.3410    -0.9370     0.4390 ha         1 VEB       0.065055
     78 C32         11.4300    -0.4180     0.1560 ca         1 VEB      -0.031490
     79 C33          6.0900    -0.9730    -0.0360 ca         1 VEB      -0.055557
     80 C34          4.2510     1.0420     0.5080 ca         1 VEB      -0.031490
     81 H40          6.7820    -1.7780    -0.2750 ha         1 VEB       0.062694
     82 H41          3.5710     1.8580     0.7290 ha         1 VEB       0.065055
     83 C35          4.8020    -1.0170    -0.5890 ca         1 VEB      -0.031490
     84 C36          3.8630    -0.0320    -0.2870 ca         1 VEB       0.075038
     85 C37          9.0350     0.8070    -0.5720 ca         1 VEB      -0.055557
     86 H42         13.5940     2.0510    -1.3000 h1         1 VEB       0.060081
     87 C38         11.3760     0.3390    -1.0080 ca         1 VEB       0.075038
     88 H43          4.5220    -1.8480    -1.2320 ha         1 VEB       0.065055
     89 O6           2.6140    -0.2170    -0.8210 os         1 VEB      -0.343351
     90 H44          8.1210     1.3040    -0.8900 ha         1 VEB       0.062694
     91 H45         13.7360     0.6590    -0.2020 h1         1 VEB       0.060081
     92 C39         13.6390     0.9570    -1.2520 c3         1 VEB       0.081544
     93 C40         10.1720     0.9270    -1.3860 ca         1 VEB      -0.031490
     94 O7          12.4360     0.4560    -1.8650 os         1 VEB      -0.343351
     95 O8          15.0170    -0.9610    -1.7690 oh         1 VEB      -0.388274
     96 H46         16.4090     0.8760    -0.6040 h1         1 VEB       0.060196
     97 C41         14.8550     0.4420    -2.0390 c3         1 VEB       0.101764
     98 H47         10.1120     1.4880    -2.3140 ha         1 VEB       0.065055
     99 H48         15.8810    -1.2290    -2.1310 ho         1 VEB       0.210692
    100 C42         16.1360     1.1750    -1.6230 c3         1 VEB       0.084607
    101 H49         14.6850     0.5360    -3.1180 h1         1 VEB       0.065019
    102 H50         15.9910     2.2590    -1.6600 h1         1 VEB       0.060196
    103 O9          17.1870     0.8560    -2.5640 os         1 VEB      -0.312742
    104 H51         20.6040    -0.8010    -2.0110 hc         1 VEB       0.024155
    105 O10         18.7050     0.9800    -0.8660 o          1 VEB      -0.265976
    106 C43         18.4510     0.8260    -2.0560 c          1 VEB       0.267164
    107 C44         20.8050     0.1590    -2.4980 c3         1 VEB      -0.049867
    108 H52         21.1920     0.8210    -1.7140 hc         1 VEB       0.024155
    109 C45         19.5350     0.7470    -3.1480 c3         1 VEB       0.057309
    110 H54         21.6140     0.0220    -3.2220 hc         1 VEB       0.024155
    111 C46         19.8410     2.2180    -3.5120 c3         1 VEB      -0.049867
    112 H55         20.0060     2.8260    -2.6150 hc         1 VEB       0.024155
    113 H56         19.0060     2.6720    -4.0580 hc         1 VEB       0.024155
    114 H57         20.7420     2.3050    -4.1280 hc         1 VEB       0.024155
    115 H58          1.6730     0.4280     0.9290 h1         1 VEB       0.060081
    116 H59          1.5320     1.5070    -0.5030 h1         1 VEB       0.060081
    117 C47        -21.0030    -2.3450     1.1240 ca         1 CRO      -0.045167
    118 C49        -22.3300    -2.7300     1.3680 ca         1 CRO      -0.058776
    119 C51        -22.6370    -4.0400     1.7460 ca         1 CRO      -0.061988
    120 C53        -21.6220    -4.9830     1.8870 ca         1 CRO      -0.062252
    121 C55        -20.3000    -4.6190     1.6440 ca         1 CRO      -0.061988
    122 C57        -19.9930    -3.3120     1.2580 ca         1 CRO      -0.058776
    123 C59        -20.7010    -0.9220     0.6650 c3         1 CRO      -0.018271
    124 C61        -20.3980    -0.9340    -0.8380 c3         1 CRO      -0.058391
    125 H24        -21.6090    -0.3240     0.8140 hc         1 CRO       0.034963
    126 H60        -19.4290    -1.3990    -1.0480 hc         1 CRO       0.023657
    127 H62        -20.3840     0.0810    -1.2460 hc         1 CRO       0.023657
    128 H64        -21.1630    -1.4900    -1.3910 hc         1 CRO       0.023657
    129 H66        -18.9550    -3.0670     1.0520 ha         1 CRO       0.062575
    130 H68        -21.8600    -6.0020     2.1780 ha         1 CRO       0.062273
    131 H70        -19.5060    -5.3540     1.7460 ha         1 CRO       0.062283
    132 H72        -23.1420    -2.0150     1.2550 ha         1 CRO       0.062575
    133 H74        -23.6700    -4.3260     1.9250 ha         1 CRO       0.062283
    134 C48         18.7480    -1.5200    -4.2010 ca         1 CRO      -0.044120
    135 C50         17.4100    -1.9430    -4.2270 ca         1 CRO      -0.058741
    136 C52         17.0760    -3.2870    -4.0450 ca         1 CRO      -0.061987
    137 C54         18.0780    -4.2340    -3.8510 ca         1 CRO      -0.062252
    138 C56         19.4120    -3.8380    -3.8450 ca         1 CRO      -0.061987
    139 C58         19.7440    -2.4930    -4.0240 ca         1 CRO      -0.058741
    140 C60         19.0770    -0.0460    -4.4280 c3         1 CRO      -0.004518
    141 C62         20.0400     0.0850    -5.6260 c3         1 CRO      -0.057373
    142 H53         18.1500     0.4290    -4.7820 hc         1 CRO       0.036042
    143 H61         21.0510    -0.2620    -5.3920 hc         1 CRO       0.023692
    144 H63         20.1110     1.1220    -5.9680 hc         1 CRO       0.023692
    145 H65         19.6810    -0.5030    -6.4790 hc         1 CRO       0.023692
    146 H67         20.7970    -2.2230    -4.0330 ha         1 CRO       0.062576
    147 H69         17.8200    -5.2810    -3.7160 ha         1 CRO       0.062273
    148 H71         20.1970    -4.5770    -3.7090 ha         1 CRO       0.062283
    149 H73         16.6090    -1.2290    -4.4070 ha         1 CRO       0.062576
    150 H75         16.0340    -3.5960    -4.0660 ha         1 CRO       0.062283
@<TRIPOS>BOND
     1   113   111 1   
     2   114   111 1   
     3   111   112 1   
     4   111   109 1   
     5   101    97 1   
     6   109   106 1   
     7   109   107 1   
     8    99    95 1   
     9    98    93 1   
    10   110   107 1   
    11   103   106 1   
    12   103   100 1   
    13    95    97 1   
    14    97   100 1   
    15    97    92 1   
    16   106   105 2   
    17   107   108 1   
    18   107   104 1   
    19    94    92 1   
    20    94    87 1   
    21   102   100 1   
    22    38    33 1   
    23    93    87 ar  
    24    93    85 ar  
    25   100    96 1   
    26    88    83 1   
    27    90    85 1   
    28    92    86 1   
    29    92    91 1   
    30    87    78 ar  
    31    89    84 1   
    32    89    36 1   
    33    23    18 1   
    34    83    84 ar  
    35    83    79 ar  
    36    85    76 ar  
    37    35    32 1   
    38    33    36 1   
    39    33    32 1   
    40    33    37 1   
    41    84    80 ar  
    42    81    79 1   
    43   116    36 1   
    44    30    32 1   
    45    30    13 1   
    46    79    74 ar  
    47    36   115 1   
    48    59    57 1   
    49    46    41 1   
    50    32    34 1   
    51    22    17 1   
    52    39    37 1   
    53    18    17 ar  
    54    18    19 ar  
    55    13    12 ar  
    56    13    14 ar  
    57    27    12 1   
    58    61    57 1   
    59    80    82 1   
    60    80    75 ar  
    61    28    14 1   
    62    78    77 1   
    63    78    71 ar  
    64    76    71 ar  
    65    76    70 1   
    66    12    11 ar  
    67    14    15 ar  
    68    58    52 1   
    69    74    75 ar  
    70    74    70 1   
    71    17    16 ar  
    72    57    52 1   
    73    57    60 1   
    74    31    19 1   
    75    31    40 1   
    76    75    72 1   
    77    41    45 1   
    78    41    40 1   
    79    41    44 1   
    80    19    20 ar  
    81    71    69 1   
    82    47    45 1   
    83    11    26 1   
    84    11    10 ar  
    85    15    29 1   
    86    15    10 ar  
    87    48    44 1   
    88    48    51 1   
    89    52    51 1   
    90    52    53 1   
    91    70    64 1   
    92    70    68 1   
    93    66    64 1   
    94    49    44 1   
    95     5     2 1   
    96    10     1 1   
    97    40    42 1   
    98    40    43 1   
    99    44    50 1   
   100    51    56 2   
   101    16     1 1   
   102    16    21 ar  
   103    73    68 1   
   104    64    63 1   
   105    64    62 1   
   106    54    53 1   
   107    20    21 ar  
   108    20    24 1   
   109     1     2 1   
   110     1     6 1   
   111    53    55 1   
   112    68    67 1   
   113    68    65 1   
   114     2     3 1   
   115     2     4 1   
   116    21    25 1   
   117     6     8 1   
   118     6     7 1   
   119     6     9 1   
   120   125   123 1   
   121   128   124 1   
   122   132   118 1   
   123   118   117 ar  
   124   118   119 ar  
   125   123   117 1   
   126   123   124 1   
   127   127   124 1   
   128   133   119 1   
   129   117   122 ar  
   130   119   120 ar  
   131   124   126 1   
   132   120   130 1   
   133   120   121 ar  
   134   122   121 ar  
   135   122   129 1   
   136   121   131 1   
   137   142   140 1   
   138   145   141 1   
   139   149   135 1   
   140   135   134 ar  
   141   135   136 ar  
   142   140   134 1   
   143   140   141 1   
   144   144   141 1   
   145   150   136 1   
   146   134   139 ar  
   147   136   137 ar  
   148   141   143 1   
   149   137   147 1   
   150   137   138 ar  
   151   139   138 ar  
   152   139   146 1   
   153   138   148 1   
   154   123    53 1   
   155   140   109 1   
@<TRIPOS>SUBSTRUCTURE
     1 VEB         1 TEMP              0 ****  ****    0 ROOT
