@<TRIPOS>MOLECULE
*****
  150   155     1     0     0
SMALL
gas


@<TRIPOS>ATOM
      1 C           -6.9610     1.7290     2.4810 c3         1 VEB       0.014609
      2 C1          -7.1560     3.2650     2.6160 c3         1 VEB      -0.051690
      3 H           -6.3030     3.7440     3.1110 hc         1 VEB       0.024276
      4 H1          -8.0420     3.5010     3.2190 hc         1 VEB       0.024276
      5 H2          -7.2870     3.7500     1.6410 hc         1 VEB       0.024276
      6 C2          -6.5670     1.2240     3.8960 c3         1 VEB      -0.051690
      7 H3          -5.5940     1.6260     4.2060 hc         1 VEB       0.024276
      8 H4          -6.4890     0.1310     3.9350 hc         1 VEB       0.024276
      9 H5          -7.2950     1.5350     4.6550 hc         1 VEB       0.024276
     10 C3          -5.7740     1.3420     1.5640 ca         1 VEB      -0.037779
     11 C4          -4.7650     2.2600     1.2200 ca         1 VEB      -0.055557
     12 C5          -3.6140     1.8600     0.5270 ca         1 VEB      -0.031490
     13 C6          -3.4350     0.5280     0.1660 ca         1 VEB       0.075038
     14 C7          -4.4510    -0.3860     0.4420 ca         1 VEB      -0.031490
     15 C8          -5.6010     0.0110     1.1410 ca         1 VEB      -0.055557
     16 C9          -8.3260     1.1810     1.9950 ca         1 VEB      -0.037779
     17 C10         -8.8050     1.5090     0.7110 ca         1 VEB      -0.055557
     18 C11        -10.0990     1.1570     0.3060 ca         1 VEB      -0.031490
     19 C12        -10.9450     0.4830     1.1810 ca         1 VEB       0.075038
     20 C13        -10.4680     0.0770     2.4220 ca         1 VEB      -0.031490
     21 C14         -9.1760     0.4290     2.8280 ca         1 VEB      -0.055557
     22 H6          -8.1780     2.0690     0.0190 ha         1 VEB       0.062694
     23 H7         -10.4520     1.4360    -0.6830 ha         1 VEB       0.065055
     24 H8         -11.0880    -0.5140     3.0890 ha         1 VEB       0.065055
     25 H9          -8.8670     0.1150     3.8200 ha         1 VEB       0.062694
     26 H10         -4.8320     3.3050     1.5080 ha         1 VEB       0.062694
     27 H11         -2.8710     2.6150     0.2930 ha         1 VEB       0.065055
     28 H12         -4.3390    -1.4260     0.1460 ha         1 VEB       0.065055
     29 H13         -6.3500    -0.7430     1.3790 ha         1 VEB       0.062694
     30 O           -2.3240     0.0300    -0.4640 os         1 VEB      -0.343351
     31 O1         -12.2150     0.2040     0.7510 os         1 VEB      -0.343351
     32 C15         -1.0960     0.7200    -0.1650 c3         1 VEB       0.081542
     33 C16          0.0880    -0.1550    -0.6100 c3         1 VEB       0.101650
     34 H14         -1.0270     0.8930     0.9170 h1         1 VEB       0.060081
     35 H15         -1.0690     1.6720    -0.7050 h1         1 VEB       0.060081
     36 C17          1.4250     0.5270    -0.2720 c3         1 VEB       0.081542
     37 O2           0.0110    -1.4130     0.0800 oh         1 VEB      -0.388276
     38 H16          0.0240    -0.3800    -1.6800 h1         1 VEB       0.065017
     39 H17         -0.8900    -1.7520    -0.0780 ho         1 VEB       0.210692
     40 C18        -13.2200     0.6960     1.6590 c3         1 VEB       0.081544
     41 C19        -14.6080     0.4520     1.0540 c3         1 VEB       0.101764
     42 H18        -13.0640     1.7710     1.8130 h1         1 VEB       0.060081
     43 H19        -13.1530     0.1690     2.6180 h1         1 VEB       0.060081
     44 C20        -15.6890     1.2360     1.8060 c3         1 VEB       0.084596
     45 O3         -14.9240    -0.9490     1.1360 oh         1 VEB      -0.388274
     46 H20        -14.6160     0.7100    -0.0110 h1         1 VEB       0.065019
     47 H21        -15.8170    -1.0490     0.7610 ho         1 VEB       0.210692
     48 O4         -16.9500     0.9840     1.1550 os         1 VEB      -0.312973
     49 H22        -15.4760     2.3100     1.7780 h1         1 VEB       0.060196
     50 H23        -15.7560     0.8890     2.8440 h1         1 VEB       0.060196
     51 C21        -18.0230     1.5960     1.7370 c          1 VEB       0.263728
     52 C22        -19.2950     1.2070     0.9970 c3         1 VEB       0.042890
     53 C23        -19.6960    -0.2190     1.4140 c3         1 VEB      -0.034642
     54 H25        -19.9960    -0.2130     2.4720 hc         1 VEB       0.028082
     55 H26        -18.7990    -0.8500     1.3750 hc         1 VEB       0.028082
     56 O5         -17.9630     2.3320     2.7100 o          1 VEB      -0.266321
     57 C24        -20.3990     2.2310     1.2490 c3         1 VEB      -0.053050
     58 H27        -19.0480     1.2460    -0.0710 hc         1 VEB       0.040673
     59 H28        -20.0500     3.2430     1.0110 hc         1 VEB       0.023856
     60 H29        -20.7150     2.2310     2.2980 hc         1 VEB       0.023856
     61 H30        -21.2770     2.0300     0.6270 hc         1 VEB       0.023856
     62 H31          8.4660    -1.3190     3.0700 hc         1 VEB       0.024276
     63 H32          6.7220    -1.3650     2.8720 hc         1 VEB       0.024276
     64 C25          7.6670    -1.2700     2.3220 c3         1 VEB      -0.051690
     65 H33          7.0670     1.2060     3.2640 hc         1 VEB       0.024276
     66 H34          7.7690    -2.1550     1.6830 hc         1 VEB       0.024276
     67 H35          8.8160     1.0930     3.0940 hc         1 VEB       0.024276
     68 C26          7.8810     1.1970     2.5290 c3         1 VEB      -0.051690
     69 H36         10.2720    -0.9860     1.9190 ha         1 VEB       0.062694
     70 C27          7.7080     0.0510     1.4980 c3         1 VEB       0.014609
     71 C28         10.1830    -0.4410     0.9830 ca         1 VEB      -0.055557
     72 H37          5.6540     2.0070     1.5850 ha         1 VEB       0.062694
     73 H38          7.9130     2.1800     2.0430 hc         1 VEB       0.024276
     74 C29          6.3520     0.1230     0.7430 ca         1 VEB      -0.037779
     75 C30          5.4210     1.1560     0.9510 ca         1 VEB      -0.055557
     76 C31          8.9540     0.1210     0.5810 ca         1 VEB      -0.037779
     77 H39         12.2510    -0.8050     0.5400 ha         1 VEB       0.065055
     78 C32         11.3410    -0.3150     0.2060 ca         1 VEB      -0.031490
     79 C33          5.9700    -0.9130    -0.1310 ca         1 VEB      -0.055557
     80 C34          4.1380     1.1150     0.3830 ca         1 VEB      -0.031490
     81 H40          6.6600    -1.7240    -0.3570 ha         1 VEB       0.062694
     82 H41          3.4600     1.9360     0.5910 ha         1 VEB       0.065055
     83 C35          4.6870    -0.9550    -0.6950 ca         1 VEB      -0.031490
     84 C36          3.7500     0.0350    -0.4050 ca         1 VEB       0.075038
     85 C37          8.9420     0.8240    -0.6360 ca         1 VEB      -0.055557
     86 H42         13.4310     2.1030    -0.9610 h1         1 VEB       0.060081
     87 C38         11.3090     0.4060    -0.9820 ca         1 VEB       0.075038
     88 H43          4.4080    -1.7890    -1.3330 ha         1 VEB       0.065055
     89 O6           2.5020    -0.1490    -0.9410 os         1 VEB      -0.343351
     90 H44          8.0280     1.2910    -1.0000 ha         1 VEB       0.062694
     91 H45         13.7680     0.5170    -0.2090 h1         1 VEB       0.060081
     92 C39         13.5760     1.0330    -1.1550 c3         1 VEB       0.081544
     93 C40         10.1030     0.9490    -1.4160 ca         1 VEB      -0.031490
     94 O7          12.3930     0.5360    -1.8070 os         1 VEB      -0.343351
     95 O8          15.1050    -0.5810    -2.1210 oh         1 VEB      -0.388274
     96 H46         16.2960     1.2350    -0.5900 h1         1 VEB       0.060196
     97 C41         14.7800     0.8200    -2.0840 c3         1 VEB       0.101764
     98 H47         10.0600     1.4810    -2.3620 ha         1 VEB       0.065055
     99 H48         15.9170    -0.6580    -2.6540 ho         1 VEB       0.210692
    100 C42         16.0120     1.5860    -1.5890 c3         1 VEB       0.084596
    101 H49         14.5340     1.1080    -3.1120 h1         1 VEB       0.065019
    102 H50         15.8130     2.6630    -1.5700 h1         1 VEB       0.060196
    103 O9          17.1000     1.3150    -2.4970 os         1 VEB      -0.312973
    104 O10         18.4420     2.6060    -1.1600 o          1 VEB      -0.266321
    105 C43         18.2890     1.8770    -2.1290 c          1 VEB       0.263728
    106 C44         19.7280    -0.0370    -2.8690 c3         1 VEB      -0.034642
    107 H52         19.0680    -0.4580    -2.0980 hc         1 VEB       0.028082
    108 C45         19.3840     1.4490    -3.0950 c3         1 VEB       0.042890
    109 H53         18.9900     1.6210    -4.1050 hc         1 VEB       0.040673
    110 H54         20.7450    -0.1420    -2.4680 hc         1 VEB       0.028082
    111 C46         20.6170     2.3380    -2.9340 c3         1 VEB      -0.053050
    112 H55         21.0490     2.2490    -1.9310 hc         1 VEB       0.023856
    113 H56         20.3600     3.3920    -3.0890 hc         1 VEB       0.023856
    114 H57         21.3900     2.0700    -3.6620 hc         1 VEB       0.023856
    115 H58          1.5690     0.4900     0.8160 h1         1 VEB       0.060081
    116 H59          1.4120     1.5680    -0.6150 h1         1 VEB       0.060081
    117 C47        -21.1240    -2.2940     1.0360 ca         1 CRO      -0.045167
    118 C49        -22.4520    -2.6800     1.2770 ca         1 CRO      -0.058776
    119 C51        -22.7580    -3.9910     1.6520 ca         1 CRO      -0.061988
    120 C53        -21.7430    -4.9330     1.7940 ca         1 CRO      -0.062252
    121 C55        -20.4210    -4.5670     1.5550 ca         1 CRO      -0.061988
    122 C57        -20.1150    -3.2600     1.1720 ca         1 CRO      -0.058776
    123 C59        -20.8230    -0.8700     0.5780 c3         1 CRO      -0.018271
    124 C61        -20.5210    -0.8810    -0.9240 c3         1 CRO      -0.058391
    125 H24        -21.7310    -0.2720     0.7280 hc         1 CRO       0.034963
    126 H60        -19.5510    -1.3450    -1.1350 hc         1 CRO       0.023657
    127 H62        -20.5080     0.1340    -1.3320 hc         1 CRO       0.023657
    128 H64        -21.2850    -1.4380    -1.4780 hc         1 CRO       0.023657
    129 H66        -19.0760    -3.0140     0.9690 ha         1 CRO       0.062575
    130 H68        -21.9810    -5.9530     2.0840 ha         1 CRO       0.062273
    131 H70        -19.6270    -5.3020     1.6590 ha         1 CRO       0.062283
    132 H72        -23.2640    -1.9660     1.1620 ha         1 CRO       0.062575
    133 H74        -23.7920    -4.2780     1.8280 ha         1 CRO       0.062283
    134 C48         19.5700    -2.3650    -3.7990 ca         1 CRO      -0.045167
    135 C50         18.3460    -3.0530    -3.7880 ca         1 CRO      -0.058776
    136 C52         18.2880    -4.4040    -3.4430 ca         1 CRO      -0.061988
    137 C54         19.4530    -5.0880    -3.1040 ca         1 CRO      -0.062252
    138 C56         20.6750    -4.4190    -3.1050 ca         1 CRO      -0.061988
    139 C58         20.7330    -3.0650    -3.4440 ca         1 CRO      -0.058776
    140 C60         19.5920    -0.8860    -4.1530 c3         1 CRO      -0.018271
    141 C62         20.6800    -0.5520    -5.1820 c3         1 CRO      -0.058391
    142 H51         18.6290    -0.6450    -4.6240 hc         1 CRO       0.034963
    143 H61         21.6860    -0.6490    -4.7610 hc         1 CRO       0.023657
    144 H63         20.5740     0.4750    -5.5460 hc         1 CRO       0.023657
    145 H65         20.6140    -1.2170    -6.0510 hc         1 CRO       0.023657
    146 H67         21.6990    -2.5650    -3.4220 ha         1 CRO       0.062575
    147 H69         19.4080    -6.1400    -2.8370 ha         1 CRO       0.062273
    148 H71         21.5840    -4.9510    -2.8360 ha         1 CRO       0.062283
    149 H73         17.4220    -2.5410    -4.0460 ha         1 CRO       0.062575
    150 H75         17.3320    -4.9220    -3.4370 ha         1 CRO       0.062283
@<TRIPOS>BOND
     1   113   111 1   
     2   114   111 1   
     3   111   112 1   
     4   111   108 1   
     5   109   108 1   
     6   101    97 1   
     7   108   105 1   
     8   108   106 1   
     9    99    95 1   
    10    98    93 1   
    11   110   106 1   
    12   103   105 1   
    13   103   100 1   
    14    95    97 1   
    15    97   100 1   
    16    97    92 1   
    17   105   104 2   
    18   106   107 1   
    19    94    92 1   
    20    94    87 1   
    21   102   100 1   
    22    38    33 1   
    23    93    87 ar  
    24    93    85 ar  
    25   100    96 1   
    26    88    83 1   
    27    90    85 1   
    28    92    86 1   
    29    92    91 1   
    30    87    78 ar  
    31    89    84 1   
    32    89    36 1   
    33    23    18 1   
    34    83    84 ar  
    35    83    79 ar  
    36    85    76 ar  
    37    35    32 1   
    38    33    36 1   
    39    33    32 1   
    40    33    37 1   
    41    84    80 ar  
    42    81    79 1   
    43   116    36 1   
    44    30    32 1   
    45    30    13 1   
    46    79    74 ar  
    47    36   115 1   
    48    59    57 1   
    49    46    41 1   
    50    32    34 1   
    51    22    17 1   
    52    39    37 1   
    53    18    17 ar  
    54    18    19 ar  
    55    13    12 ar  
    56    13    14 ar  
    57    27    12 1   
    58    61    57 1   
    59    80    82 1   
    60    80    75 ar  
    61    28    14 1   
    62    78    77 1   
    63    78    71 ar  
    64    76    71 ar  
    65    76    70 1   
    66    12    11 ar  
    67    14    15 ar  
    68    58    52 1   
    69    74    75 ar  
    70    74    70 1   
    71    17    16 ar  
    72    57    52 1   
    73    57    60 1   
    74    31    19 1   
    75    31    40 1   
    76    75    72 1   
    77    41    45 1   
    78    41    40 1   
    79    41    44 1   
    80    19    20 ar  
    81    71    69 1   
    82    47    45 1   
    83    11    26 1   
    84    11    10 ar  
    85    15    29 1   
    86    15    10 ar  
    87    48    44 1   
    88    48    51 1   
    89    52    51 1   
    90    52    53 1   
    91    70    64 1   
    92    70    68 1   
    93    66    64 1   
    94    49    44 1   
    95     5     2 1   
    96    10     1 1   
    97    40    42 1   
    98    40    43 1   
    99    44    50 1   
   100    51    56 2   
   101    16     1 1   
   102    16    21 ar  
   103    73    68 1   
   104    64    63 1   
   105    64    62 1   
   106    54    53 1   
   107    20    21 ar  
   108    20    24 1   
   109     1     2 1   
   110     1     6 1   
   111    53    55 1   
   112    68    67 1   
   113    68    65 1   
   114     2     3 1   
   115     2     4 1   
   116    21    25 1   
   117     6     8 1   
   118     6     7 1   
   119     6     9 1   
   120   125   123 1   
   121   128   124 1   
   122   132   118 1   
   123   118   117 ar  
   124   118   119 ar  
   125   123   117 1   
   126   123   124 1   
   127   127   124 1   
   128   133   119 1   
   129   117   122 ar  
   130   119   120 ar  
   131   124   126 1   
   132   120   130 1   
   133   120   121 ar  
   134   122   121 ar  
   135   122   129 1   
   136   121   131 1   
   137   142   140 1   
   138   145   141 1   
   139   149   135 1   
   140   135   134 ar  
   141   135   136 ar  
   142   140   134 1   
   143   140   141 1   
   144   144   141 1   
   145   150   136 1   
   146   134   139 ar  
   147   136   137 ar  
   148   141   143 1   
   149   137   147 1   
   150   137   138 ar  
   151   139   138 ar  
   152   139   146 1   
   153   138   148 1   
   154   123    53 1   
   155   140   106 1   
@<TRIPOS>SUBSTRUCTURE
     1 VEB         1 TEMP              0 ****  ****    0 ROOT
