@<TRIPOS>MOLECULE
*****
  166   172     1     0     0
SMALL
gas


@<TRIPOS>ATOM
      1 C           -8.9680     1.9190     3.0290 c3         1 VEB       0.014613
      2 C1          -9.1930     3.4520     3.1450 c3         1 VEB      -0.051690
      3 H           -8.3600     3.9510     3.6550 hc         1 VEB       0.024275
      4 H1         -10.0950     3.6780     3.7270 hc         1 VEB       0.024275
      5 H2          -9.3090     3.9270     2.1640 hc         1 VEB       0.024275
      6 C2          -8.5890     1.4350     4.4550 c3         1 VEB      -0.051690
      7 H3          -7.6310     1.8630     4.7800 hc         1 VEB       0.024275
      8 H4          -8.4850     0.3440     4.5050 hc         1 VEB       0.024275
      9 H5          -9.3380     1.7350     5.1980 hc         1 VEB       0.024275
     10 C3          -7.7550     1.5480     2.1390 ca         1 VEB      -0.037775
     11 C4          -6.7420     2.4740     1.8280 ca         1 VEB      -0.055555
     12 C5          -5.5710     2.0880     1.1590 ca         1 VEB      -0.031489
     13 C6          -5.3760     0.7610     0.7900 ca         1 VEB       0.075048
     14 C7          -6.3910    -0.1620     1.0360 ca         1 VEB      -0.031489
     15 C8          -7.5600     0.2210     1.7110 ca         1 VEB      -0.055555
     16 C9         -10.3130     1.3360     2.5240 ca         1 VEB      -0.037775
     17 C10        -10.7860     1.6490     1.2330 ca         1 VEB      -0.055555
     18 C11        -12.0600     1.2460     0.8040 ca         1 VEB      -0.031489
     19 C12        -12.8920     0.5330     1.6610 ca         1 VEB       0.075048
     20 C13        -12.4190     0.1460     2.9110 ca         1 VEB      -0.031489
     21 C14        -11.1500     0.5520     3.3410 ca         1 VEB      -0.055555
     22 H6         -10.1690     2.2320     0.5520 ha         1 VEB       0.062690
     23 H7         -12.4050     1.5120    -0.1910 ha         1 VEB       0.065049
     24 H8         -13.0310    -0.4690     3.5650 ha         1 VEB       0.065049
     25 H9         -10.8470     0.2500     4.3400 ha         1 VEB       0.062690
     26 H10         -6.8220     3.5170     2.1240 ha         1 VEB       0.062690
     27 H11         -4.8270     2.8500     0.9490 ha         1 VEB       0.065049
     28 H12         -6.2660    -1.1990     0.7340 ha         1 VEB       0.065049
     29 H13         -8.3080    -0.5410     1.9260 ha         1 VEB       0.062690
     30 O           -4.2500     0.2750     0.1760 os         1 VEB      -0.343341
     31 O1         -14.1430     0.1800     1.2220 os         1 VEB      -0.343341
     32 C15         -3.0290     0.9640     0.5020 c3         1 VEB       0.081548
     33 C16         -1.8400     0.0870     0.0790 c3         1 VEB       0.101658
     34 H14         -2.9820     1.1350     1.5860 h1         1 VEB       0.060074
     35 H15         -2.9910     1.9180    -0.0350 h1         1 VEB       0.060074
     36 C17         -0.5040     0.7580     0.4440 c3         1 VEB       0.081548
     37 O2          -1.9360    -1.1740     0.7620 oh         1 VEB      -0.388268
     38 H16         -1.8840    -0.1360    -0.9930 h1         1 VEB       0.065008
     39 H17         -2.8360    -1.5080     0.5840 ho         1 VEB       0.210686
     40 C18        -15.1730     0.7680     2.0400 c3         1 VEB       0.081550
     41 C19        -16.5620     0.2560     1.6120 c3         1 VEB       0.101772
     42 H18        -15.1240     1.8580     1.9180 h1         1 VEB       0.060074
     43 H19        -15.0210     0.5150     3.0960 h1         1 VEB       0.060074
     44 C20        -17.6550     1.1050     2.2760 c3         1 VEB       0.084611
     45 O3         -16.7130    -1.1080     2.0330 oh         1 VEB      -0.388266
     46 H20        -16.6660     0.2670     0.5220 h1         1 VEB       0.065010
     47 H21        -17.6390    -1.3540     1.8610 ho         1 VEB       0.210686
     48 O4         -18.9700     0.6850     1.8460 os         1 VEB      -0.312737
     49 H22        -17.4960     2.1570     2.0090 h1         1 VEB       0.060189
     50 H23        -17.6100     0.9840     3.3650 h1         1 VEB       0.060189
     51 C21        -19.9420     1.5770     2.1900 c          1 VEB       0.267174
     52 C22        -21.3670     1.1690     1.7880 c3         1 VEB       0.057307
     53 C23        -21.9740     0.4490     3.0100 c3         1 VEB      -0.049870
     54 H24        -21.4290    -0.4700     3.2510 hc         1 VEB       0.024153
     55 H25        -23.0280     0.2010     2.8490 hc         1 VEB       0.024153
     56 H26        -21.9240     1.0810     3.9060 hc         1 VEB       0.024153
     57 O5         -19.7040     2.6000     2.8280 o          1 VEB      -0.265963
     58 C24        -22.1610     2.4960     1.6120 c3         1 VEB      -0.049870
     59 H28        -21.7330     3.1150     0.8160 hc         1 VEB       0.024153
     60 H29        -22.1540     3.0990     2.5280 hc         1 VEB       0.024153
     61 H30        -23.2120     2.3040     1.3670 hc         1 VEB       0.024153
     62 H31          6.6530    -1.0640     3.7270 hc         1 VEB       0.024275
     63 H32          4.9020    -1.1320     3.6040 hc         1 VEB       0.024275
     64 C25          5.8210    -1.0270     3.0140 c3         1 VEB      -0.051690
     65 H33          5.2180     1.4380     3.9770 hc         1 VEB       0.024275
     66 H34          5.9060    -1.9120     2.3730 hc         1 VEB       0.024275
     67 H35          6.9620     1.3550     3.7410 hc         1 VEB       0.024275
     68 C26          6.0040     1.4430     3.2130 c3         1 VEB      -0.051690
     69 H36          8.3960    -0.7840     2.4440 ha         1 VEB       0.062690
     70 C27          5.8120     0.2930     2.1890 c3         1 VEB       0.014613
     71 C28          8.2620    -0.2020     1.5360 ca         1 VEB      -0.055555
     72 H37          3.7250     2.2100     2.3470 ha         1 VEB       0.062690
     73 H38          6.0000     2.4260     2.7270 hc         1 VEB       0.024275
     74 C29          4.4330     0.3430     1.4760 ca         1 VEB      -0.037775
     75 C30          3.4930     1.3630     1.7070 ca         1 VEB      -0.055555
     76 C31          7.0190     0.3880     1.2230 ca         1 VEB      -0.037775
     77 H39         10.3060    -0.5570     0.9530 ha         1 VEB       0.065049
     78 C32          9.3760    -0.0560     0.6990 ca         1 VEB      -0.031489
     79 C33          4.0500    -0.6900     0.5990 ca         1 VEB      -0.055555
     80 C34          2.2060     1.3190     1.1460 ca         1 VEB      -0.031489
     81 H40          4.7460    -1.4910     0.3560 ha         1 VEB       0.062690
     82 H41          1.5250     2.1340     1.3670 ha         1 VEB       0.065049
     83 C35          2.7640    -0.7340     0.0430 ca         1 VEB      -0.031489
     84 C36          1.8230     0.2490     0.3440 ca         1 VEB       0.075048
     85 C37          6.9470     1.1420     0.0370 ca         1 VEB      -0.055555
     86 H42         11.4880     2.4670    -1.0250 h1         1 VEB       0.060074
     87 C38          9.2780     0.7060    -0.4590 ca         1 VEB       0.075048
     88 H43          2.4870    -1.5630    -0.6040 ha         1 VEB       0.065049
     89 O6           0.5780     0.0670    -0.2000 os         1 VEB      -0.343341
     90 H44          6.0200     1.6310    -0.2550 ha         1 VEB       0.062690
     91 H45         11.5800     1.2780     0.2950 h1         1 VEB       0.060074
     92 C39         11.5100     1.3970    -0.7930 c3         1 VEB       0.081550
     93 C40          8.0600     1.2830    -0.8030 ca         1 VEB      -0.031489
     94 O7          10.3080     0.8290    -1.3460 os         1 VEB      -0.343341
     95 O8          12.9550    -0.5480    -0.8570 oh         1 VEB      -0.388266
     96 H46         14.3190     1.6580    -0.3480 h1         1 VEB       0.060189
     97 C41         12.7070     0.7270    -1.4770 c3         1 VEB       0.101772
     98 H47          7.9710     1.8490    -1.7260 ha         1 VEB       0.065049
     99 H48         13.7480    -0.9140    -1.2900 ho         1 VEB       0.210686
    100 C42         13.9820     1.5710    -1.3860 c3         1 VEB       0.084611
    101 H49         12.4740     0.5170    -2.5270 h1         1 VEB       0.065010
    102 H50         13.8110     2.5630    -1.8160 h1         1 VEB       0.060189
    103 O9          15.0070     0.8670    -2.1220 os         1 VEB      -0.312729
    104 O10         16.1980     2.8060    -2.2960 o          1 VEB      -0.265950
    105 C43         16.0760     1.6100    -2.5280 c          1 VEB       0.267479
    106 C44         17.4600    -0.4500    -2.3810 c3         1 VEB      -0.031185
    107 H52         16.5520    -1.0410    -2.2750 hc         1 VEB       0.028391
    108 C45         17.0860     0.7470    -3.3300 c3         1 VEB       0.060684
    109 H54         17.6340    -0.0540    -1.3690 hc         1 VEB       0.028391
    110 C46         18.3230     1.6430    -3.5560 c3         1 VEB      -0.049575
    111 H55         18.7590     1.9600    -2.6020 hc         1 VEB       0.024164
    112 H56         18.0670     2.5690    -4.0840 hc         1 VEB       0.024164
    113 H57         19.1000     1.1330    -4.1330 hc         1 VEB       0.024164
    114 H58         -0.3830     0.7230     1.5340 h1         1 VEB       0.060074
    115 H59         -0.5000     1.7970     0.0960 h1         1 VEB       0.060074
    116 C47        -21.6290    -1.1590     0.5890 ca         1 CRO      -0.044115
    117 C50        -22.9020    -1.7610     0.6320 ca         1 CRO      -0.058737
    118 C53        -23.0430    -3.1420     0.7800 ca         1 CRO      -0.061983
    119 C56        -21.9130    -3.9460     0.8880 ca         1 CRO      -0.062248
    120 C59        -20.6460    -3.3680     0.8410 ca         1 CRO      -0.061983
    121 C62        -20.5050    -1.9860     0.6880 ca         1 CRO      -0.058737
    122 C65        -21.5310     0.3570     0.4490 c3         1 CRO      -0.004518
    123 C68        -20.5810     0.7800    -0.6850 c3         1 CRO      -0.057374
    124 H27        -22.5190     0.6420     0.0530 hc         1 CRO       0.036039
    125 H60        -19.5490     0.4580    -0.5250 hc         1 CRO       0.023691
    126 H63        -20.5800     1.8660    -0.8170 hc         1 CRO       0.023691
    127 H66        -20.9050     0.3360    -1.6340 hc         1 CRO       0.023691
    128 H69        -19.5050    -1.5690     0.6400 ha         1 CRO       0.062571
    129 H72        -22.0200    -5.0210     1.0050 ha         1 CRO       0.062269
    130 H75        -19.7630    -3.9990     0.9200 ha         1 CRO       0.062279
    131 H78        -23.8020    -1.1540     0.5550 ha         1 CRO       0.062571
    132 H81        -24.0340    -3.5870     0.8120 ha         1 CRO       0.062279
    133 C48         18.5290    -2.8550    -2.4370 ca         1 CRO      -0.045151
    134 C51         17.3910    -3.4300    -1.8470 ca         1 CRO      -0.058773
    135 C54         17.3140    -4.8050    -1.5920 ca         1 CRO      -0.061984
    136 C57         18.3820    -5.6380    -1.9010 ca         1 CRO      -0.062248
    137 C60         19.5200    -5.0980    -2.4870 ca         1 CRO      -0.061984
    138 C63         19.5850    -3.7290    -2.7660 ca         1 CRO      -0.058773
    139 C66         18.6740    -1.3540    -2.7530 c3         1 CRO      -0.017979
    140 C69         19.9510    -0.8290    -2.0600 c3         1 CRO      -0.058380
    141 H51         18.8340    -1.2830    -3.8350 hc         1 CRO       0.034972
    142 H61         19.9280    -1.0300    -0.9830 hc         1 CRO       0.023657
    143 H64         20.0880     0.2440    -2.1930 hc         1 CRO       0.023657
    144 H67         20.8530    -1.3000    -2.4650 hc         1 CRO       0.023657
    145 H70         20.4860    -3.3500    -3.2440 ha         1 CRO       0.062571
    146 H73         18.3240    -6.7010    -1.6900 ha         1 CRO       0.062269
    147 H76         20.3610    -5.7420    -2.7320 ha         1 CRO       0.062279
    148 H79         16.5210    -2.8460    -1.5730 ha         1 CRO       0.062571
    149 H82         16.4130    -5.2190    -1.1480 ha         1 CRO       0.062279
    150 C49         15.9480    -1.1010    -4.8600 ca         1 CRO      -0.044104
    151 C52         14.7090    -1.5420    -4.3650 ca         1 CRO      -0.058737
    152 C55         14.3160    -2.8770    -4.4860 ca         1 CRO      -0.061983
    153 C58         15.1500    -3.7930    -5.1180 ca         1 CRO      -0.062248
    154 C61         16.3720    -3.3720    -5.6340 ca         1 CRO      -0.061983
    155 C64         16.7670    -2.0380    -5.5100 ca         1 CRO      -0.058737
    156 C67         16.3490     0.3640    -4.6940 c3         1 CRO      -0.004225
    157 C70         17.0240     0.8960    -5.9750 c3         1 CRO      -0.057363
    158 H53         15.3910     0.9080    -4.7010 hc         1 CRO       0.036050
    159 H62         18.0410     0.5120    -6.1000 hc         1 CRO       0.023692
    160 H65         17.0660     1.9900    -5.9730 hc         1 CRO       0.023692
    161 H68         16.4510     0.6080    -6.8650 hc         1 CRO       0.023692
    162 H71         17.7310    -1.7510    -5.9200 ha         1 CRO       0.062571
    163 H74         14.8500    -4.8330    -5.2110 ha         1 CRO       0.062269
    164 H77         17.0270    -4.0860    -6.1270 ha         1 CRO       0.062279
    165 H80         14.0300    -0.8460    -3.8810 ha         1 CRO       0.062571
    166 H83         13.3570    -3.1990    -4.0880 ha         1 CRO       0.062279
@<TRIPOS>BOND
     1   112   110 1   
     2   113   110 1   
     3   110   111 1   
     4   110   108 1   
     5   101    97 1   
     6   108   105 1   
     7   108   106 1   
     8    99    95 1   
     9    98    93 1   
    10   109   106 1   
    11   103   105 1   
    12   103   100 1   
    13    95    97 1   
    14    97   100 1   
    15    97    92 1   
    16   105   104 2   
    17   106   107 1   
    18    94    92 1   
    19    94    87 1   
    20   102   100 1   
    21    38    33 1   
    22    93    87 ar  
    23    93    85 ar  
    24   100    96 1   
    25    88    83 1   
    26    90    85 1   
    27    92    86 1   
    28    92    91 1   
    29    87    78 ar  
    30    89    84 1   
    31    89    36 1   
    32    23    18 1   
    33    83    84 ar  
    34    83    79 ar  
    35    85    76 ar  
    36    35    32 1   
    37    33    36 1   
    38    33    32 1   
    39    33    37 1   
    40    84    80 ar  
    41    81    79 1   
    42   115    36 1   
    43    30    32 1   
    44    30    13 1   
    45    79    74 ar  
    46    36   114 1   
    47    59    58 1   
    48    46    41 1   
    49    32    34 1   
    50    22    17 1   
    51    39    37 1   
    52    18    17 ar  
    53    18    19 ar  
    54    13    12 ar  
    55    13    14 ar  
    56    27    12 1   
    57    61    58 1   
    58    80    82 1   
    59    80    75 ar  
    60    28    14 1   
    61    78    77 1   
    62    78    71 ar  
    63    76    71 ar  
    64    76    70 1   
    65    12    11 ar  
    66    14    15 ar  
    67    74    75 ar  
    68    74    70 1   
    69    17    16 ar  
    70    58    52 1   
    71    58    60 1   
    72    31    19 1   
    73    31    40 1   
    74    75    72 1   
    75    41    45 1   
    76    41    40 1   
    77    41    44 1   
    78    19    20 ar  
    79    71    69 1   
    80    47    45 1   
    81    11    26 1   
    82    11    10 ar  
    83    15    29 1   
    84    15    10 ar  
    85    48    44 1   
    86    48    51 1   
    87    52    51 1   
    88    52    53 1   
    89    70    64 1   
    90    70    68 1   
    91    66    64 1   
    92    49    44 1   
    93     5     2 1   
    94    10     1 1   
    95    40    42 1   
    96    40    43 1   
    97    44    50 1   
    98    51    57 2   
    99    16     1 1   
   100    16    21 ar  
   101    73    68 1   
   102    64    63 1   
   103    64    62 1   
   104    55    53 1   
   105    20    21 ar  
   106    20    24 1   
   107     1     2 1   
   108     1     6 1   
   109    53    54 1   
   110    53    56 1   
   111    68    67 1   
   112    68    65 1   
   113     2     3 1   
   114     2     4 1   
   115    21    25 1   
   116     6     8 1   
   117     6     7 1   
   118     6     9 1   
   119   124   122 1   
   120   127   123 1   
   121   131   117 1   
   122   117   116 ar  
   123   117   118 ar  
   124   122   116 1   
   125   122   123 1   
   126   126   123 1   
   127   132   118 1   
   128   116   121 ar  
   129   118   119 ar  
   130   123   125 1   
   131   119   129 1   
   132   119   120 ar  
   133   121   120 ar  
   134   121   128 1   
   135   120   130 1   
   136   141   139 1   
   137   144   140 1   
   138   148   134 1   
   139   134   133 ar  
   140   134   135 ar  
   141   139   133 1   
   142   139   140 1   
   143   143   140 1   
   144   149   135 1   
   145   133   138 ar  
   146   135   136 ar  
   147   140   142 1   
   148   136   146 1   
   149   136   137 ar  
   150   138   137 ar  
   151   138   145 1   
   152   137   147 1   
   153   158   156 1   
   154   161   157 1   
   155   165   151 1   
   156   151   150 ar  
   157   151   152 ar  
   158   156   150 1   
   159   156   157 1   
   160   160   157 1   
   161   166   152 1   
   162   150   155 ar  
   163   152   153 ar  
   164   157   159 1   
   165   153   163 1   
   166   153   154 ar  
   167   155   154 ar  
   168   155   162 1   
   169   154   164 1   
   170   122    52 1   
   171   139   106 1   
   172   156   108 1   
@<TRIPOS>SUBSTRUCTURE
     1 VEB         1 TEMP              0 ****  ****    0 ROOT
