@<TRIPOS>MOLECULE
*****
 166 172 0 0 0
SMALL
GASTEIGER

@<TRIPOS>ATOM
      1 C          -5.1834    1.9971    2.4878 C.3     1  VEB1        0.0151
      2 C1         -5.3764    3.5322    2.6299 C.3     1  VEB1       -0.0517
      3 H          -4.5376    4.0044    3.1548 H       1  VEB1        0.0241
      4 H1         -6.2783    3.7683    3.2090 H       1  VEB1        0.0241
      5 H2         -5.4779    4.0232    1.6545 H       1  VEB1        0.0241
      6 C2         -4.8365    1.4729    3.9092 C.3     1  VEB1       -0.0517
      7 H3         -3.8566    1.8388    4.2417 H       1  VEB1        0.0241
      8 H4         -4.7996    0.3770    3.9422 H       1  VEB1        0.0241
      9 H5         -5.5652    1.8062    4.6575 H       1  VEB1        0.0241
     10 C3         -3.9567    1.6188    1.6146 C.ar    1  VEB1       -0.0372
     11 C4         -2.9255    2.5366    1.3353 C.ar    1  VEB1       -0.0543
     12 C5         -1.7319    2.1431    0.7079 C.ar    1  VEB1       -0.0197
     13 C6         -1.5320    0.8159    0.3434 C.ar    1  VEB1        0.1206
     14 C7         -2.5660   -0.0976    0.5542 C.ar    1  VEB1       -0.0197
     15 C8         -3.7574    0.2930    1.1897 C.ar    1  VEB1       -0.0543
     16 C9         -6.5436    1.4651    1.9615 C.ar    1  VEB1       -0.0372
     17 C10        -6.9507    1.7150    0.6376 C.ar    1  VEB1       -0.0543
     18 C11        -8.2386    1.3689    0.1914 C.ar    1  VEB1       -0.0197
     19 C12        -9.1615    0.7841    1.0581 C.ar    1  VEB1        0.1206
     20 C13        -8.7601    0.4802    2.3546 C.ar    1  VEB1       -0.0197
     21 C14        -7.4730    0.8210    2.8001 C.ar    1  VEB1       -0.0543
     22 H6         -6.2734    2.2053   -0.0597 H       1  VEB1        0.0622
     23 H7         -8.5250    1.5809   -0.8355 H       1  VEB1        0.0654
     24 H8         -9.4202   -0.0362    3.0437 H       1  VEB1        0.0654
     25 H9         -7.2320    0.5808    3.8322 H       1  VEB1        0.0622
     26 H10        -3.0052    3.5796    1.6298 H       1  VEB1        0.0622
     27 H11        -0.9765    2.9009    0.5290 H       1  VEB1        0.0654
     28 H12        -2.4378   -1.1355    0.2564 H       1  VEB1        0.0654
     29 H13        -4.5167   -0.4640    1.3803 H       1  VEB1        0.0622
     30 O          -0.3891    0.3183   -0.2303 O.3     1  VEB1       -0.4893
     31 O1        -10.3995    0.4873    0.5448 O.3     1  VEB1       -0.4893
     32 C15         0.8271    1.0325    0.0684 C.3     1  VEB1        0.1186
     33 C16         2.0281    0.1737   -0.3708 C.3     1  VEB1        0.1229
     34 H14         0.8869    1.2123    1.1494 H       1  VEB1        0.0724
     35 H15         0.8393    1.9822   -0.4777 H       1  VEB1        0.0724
     36 C17         3.3663    0.8682   -0.0490 C.3     1  VEB1        0.1186
     37 O2          1.9705   -1.0808    0.3296 O.3     1  VEB1       -0.3850
     38 H16         1.9620   -0.0632   -1.4385 H       1  VEB1        0.0661
     39 H17         1.0748   -1.4346    0.1722 H       1  VEB1        0.2101
     40 C18       -11.5023    0.7773    1.4251 C.3     1  VEB1        0.1186
     41 C19       -12.8352    0.3724    0.7611 C.3     1  VEB1        0.1230
     42 H18       -11.5008    1.8543    1.6341 H       1  VEB1        0.0724
     43 H19       -11.4053    0.2175    2.3610 H       1  VEB1        0.0724
     44 C20       -14.0235    0.9591    1.5356 C.3     1  VEB1        0.1215
     45 O3        -12.9485   -1.0602    0.7725 O.3     1  VEB1       -0.3850
     46 H20       -12.8620    0.6833   -0.2888 H       1  VEB1        0.0662
     47 H21       -13.8529   -1.2744    0.4832 H       1  VEB1        0.2101
     48 O4        -15.2721    0.6083    0.8895 O.3     1  VEB1       -0.4617
     49 H22       -13.9406    2.0520    1.5710 H       1  VEB1        0.0725
     50 H23       -14.0321    0.5503    2.5537 H       1  VEB1        0.0725
     51 C21       -16.3617    1.0868    1.5528 C.2     1  VEB1        0.3097
     52 C22       -17.7104    0.8236    0.8660 C.3     1  VEB1        0.0508
     53 C23       -18.5387   -0.2538    1.6699 C.3     1  VEB1       -0.0525
     54 H25       -19.5323   -0.2611    1.2083 H       1  VEB1        0.0237
     55 H26       -18.7168    0.1313    2.6856 H       1  VEB1        0.0237
     56 O5        -16.2739    1.6658    2.6333 O.2     1  VEB1       -0.2506
     57 C24       -18.5020    2.1657    1.1018 C.3     1  VEB1       -0.0525
     58 H28       -17.9765    3.0284    0.6790 H       1  VEB1        0.0237
     59 H29       -18.6406    2.3754    2.1696 H       1  VEB1        0.0237
     60 H30       -19.5032    2.1246    0.6566 H       1  VEB1        0.0237
     61 H31        10.4616   -1.0028    3.1551 H       1  VEB1        0.0241
     62 H32         8.7185   -1.0507    2.9578 H       1  VEB1        0.0241
     63 C25         9.6621   -0.9424    2.4081 C.3     1  VEB1       -0.0517
     64 H33         9.0610    1.5204    3.3922 H       1  VEB1        0.0241
     65 H34         9.7673   -1.8160    1.7537 H       1  VEB1        0.0241
     66 H35        10.8090    1.4100    3.2196 H       1  VEB1        0.0241
     67 C26         9.8741    1.5226    2.6564 C.3     1  VEB1       -0.0517
     68 H36        12.2773   -0.5746    2.0695 H       1  VEB1        0.0622
     69 C27         9.6986    0.3930    1.6063 C.3     1  VEB1        0.0151
     70 C28        12.1870   -0.0542    1.1195 C.ar    1  VEB1       -0.0543
     71 H37         7.6434    2.3490    1.7371 H       1  VEB1        0.0622
     72 H38         9.9065    2.5126    2.1855 H       1  VEB1        0.0241
     73 C29         8.3351    0.4765    0.8631 C.ar    1  VEB1       -0.0372
     74 C30         7.4014    1.5028    1.0997 C.ar    1  VEB1       -0.0543
     75 C31        10.9493    0.4730    0.6942 C.ar    1  VEB1       -0.0372
     76 H39        14.2627   -0.3927    0.7125 H       1  VEB1        0.0654
     77 C32        13.3527    0.0768    0.3532 C.ar    1  VEB1       -0.0197
     78 C33         7.9376   -0.5509   -0.0137 C.ar    1  VEB1       -0.0543
     79 C34         6.1030    1.4593    0.5635 C.ar    1  VEB1       -0.0197
     80 H40         8.6247   -1.3579   -0.2624 H       1  VEB1        0.0622
     81 H41         5.4252    2.2733    0.7976 H       1  VEB1        0.0654
     82 C35         6.6395   -0.5940   -0.5462 C.ar    1  VEB1       -0.0197
     83 C36         5.7004    0.3852   -0.2238 C.ar    1  VEB1        0.1206
     84 C37        10.9374    1.1473   -0.5380 C.ar    1  VEB1       -0.0543
     85 H42        15.5347    2.3944   -0.8274 H       1  VEB1        0.0724
     86 C38        13.3219    0.7659   -0.8524 C.ar    1  VEB1        0.1206
     87 H43         6.3505   -1.4248   -1.1857 H       1  VEB1        0.0654
     88 O6          4.4407    0.1955   -0.7302 O.3     1  VEB1       -0.4893
     89 H44        10.0198    1.5883   -0.9217 H       1  VEB1        0.0622
     90 H45        15.8034    0.7838   -0.1041 H       1  VEB1        0.0724
     91 C39        15.6212    1.3223   -1.0392 C.3     1  VEB1        0.1186
     92 C40        12.1065    1.2757   -1.3074 C.ar    1  VEB1       -0.0197
     93 O7         14.4036    0.9000   -1.6802 O.3     1  VEB1       -0.4893
     94 O8         17.0539   -0.3547   -2.0468 O.3     1  VEB1       -0.3850
     95 H46        18.3666    1.3761   -0.5222 H       1  VEB1        0.0725
     96 C41        16.8002    1.0606   -1.9891 C.3     1  VEB1        0.1230
     97 H47        12.0635    1.7866   -2.2659 H       1  VEB1        0.0654
     98 H48        17.8590   -0.4658   -2.5843 H       1  VEB1        0.2101
     99 C42        18.0784    1.7569   -1.5095 C.3     1  VEB1        0.1215
    100 H49        16.5524    1.3726   -3.0099 H       1  VEB1        0.0662
    101 H50        17.9338    2.8423   -1.4693 H       1  VEB1        0.0725
    102 O9         19.1330    1.4492   -2.4463 O.3     1  VEB1       -0.4617
    103 O10        20.5682    2.6383   -1.1124 O.2     1  VEB1       -0.2506
    104 C43        20.3564    1.9484   -2.0964 C.2     1  VEB1        0.3097
    105 C44        21.6732    0.0024   -2.9897 C.3     1  VEB1       -0.0525
    106 H52        21.1077   -0.4076   -2.1415 H       1  VEB1        0.0237
    107 C45        21.4031    1.5164   -3.1149 C.3     1  VEB1        0.0508
    108 H53        20.9990    1.7750   -4.1014 H       1  VEB1        0.0408
    109 H54        22.7297   -0.1817   -2.7530 H       1  VEB1        0.0237
    110 C46        22.6904    2.3208   -2.9328 C.3     1  VEB1       -0.0525
    111 H55        23.1417    2.1396   -1.9510 H       1  VEB1        0.0237
    112 H56        22.4936    3.3955   -3.0129 H       1  VEB1        0.0237
    113 H57        23.4255    2.0554   -3.7002 H       1  VEB1        0.0237
    114 H58         3.5255    0.8362    1.0363 H       1  VEB1        0.0724
    115 H59         3.3422    1.9073   -0.3965 H       1  VEB1        0.0724
    116 C         -17.6534   -0.7730   -1.2701 C.ar    1  CRO01      -0.0476
    117 C1        -18.8539   -1.3833   -1.6805 C.ar    1  CRO01      -0.0586
    118 C2        -18.8705   -2.6923   -2.1636 C.ar    1  CRO01      -0.0615
    119 C3        -17.6833   -3.4096   -2.2594 C.ar    1  CRO01      -0.0617
    120 C4        -16.4805   -2.8111   -1.8898 C.ar    1  CRO01      -0.0615
    121 C5        -16.4632   -1.4990   -1.4061 C.ar    1  CRO01      -0.0586
    122 C6        -17.6985    0.6405   -0.7101 C.3     1  CRO01      -0.0305
    123 C7        -16.7277    1.5625   -1.4769 C.3     1  CRO01      -0.0613
    124 H1        -18.6826    1.0106   -1.0393 H       1  CRO01       0.0311
    125 H2        -15.6830    1.2517   -1.3966 H       1  CRO01       0.0233
    126 H3        -16.7968    2.5996   -1.1383 H       1  CRO01       0.0233
    127 H4        -16.9702    1.5565   -2.5470 H       1  CRO01       0.0233
    128 H5        -15.5098   -1.0618   -1.1302 H       1  CRO01       0.0620
    129 H6        -17.6956   -4.4336   -2.6232 H       1  CRO01       0.0618
    130 H7        -15.5528   -3.3717   -1.9732 H       1  CRO01       0.0618
    131 H8        -19.7980   -0.8458   -1.6115 H       1  CRO01       0.0620
    132 H9        -19.8111   -3.1533   -2.4541 H       1  CRO01       0.0618
    133 C         -19.1507   -2.7192    2.1646 C.ar    1  CRO11      -0.0476
    134 C1        -20.3240   -2.7394    1.3869 C.ar    1  CRO11      -0.0586
    135 C2        -21.3368   -3.6812    1.6007 C.ar    1  CRO11      -0.0615
    136 C3        -21.1919   -4.6488    2.5860 C.ar    1  CRO11      -0.0617
    137 C4        -20.0371   -4.6677    3.3584 C.ar    1  CRO11      -0.0615
    138 C5        -19.0321   -3.7144    3.1516 C.ar    1  CRO11      -0.0586
    139 C6        -18.0182   -1.7169    1.8468 C.3     1  CRO11      -0.0305
    140 C7        -16.8752   -1.7740    2.8746 C.3     1  CRO11      -0.0613
    141 H1        -17.5943   -2.0792    0.9127 H       1  CRO11       0.0311
    142 H2        -17.2204   -1.4859    3.8739 H       1  CRO11       0.0233
    143 H3        -16.0425   -1.1272    2.6073 H       1  CRO11       0.0233
    144 H4        -16.4449   -2.7798    2.9348 H       1  CRO11       0.0233
    145 H5        -18.1491   -3.7919    3.7790 H       1  CRO11       0.0620
    146 H6        -21.9691   -5.3909    2.7443 H       1  CRO11       0.0618
    147 H7        -19.9070   -5.4322    4.1201 H       1  CRO11       0.0618
    148 H8        -20.4703   -2.0293    0.5797 H       1  CRO11       0.0620
    149 H9        -22.2316   -3.6634    0.9842 H       1  CRO11       0.0618
    150 C          21.2420   -2.2728   -3.9815 C.ar    1  CRO21      -0.0476
    151 C1         20.0044   -2.9347   -3.9733 C.ar    1  CRO21      -0.0586
    152 C2         19.9286   -4.3025   -3.7035 C.ar    1  CRO21      -0.0615
    153 C3         21.0877   -5.0275   -3.4389 C.ar    1  CRO21      -0.0617
    154 C4         22.3230   -4.3844   -3.4393 C.ar    1  CRO21      -0.0615
    155 C5         22.4005   -3.0154   -3.7047 C.ar    1  CRO21      -0.0586
    156 C6         21.2947   -0.7796   -4.2674 C.3     1  CRO21      -0.0305
    157 C7         22.2428   -0.4690   -5.4334 C.3     1  CRO21      -0.0613
    158 H1         20.2903   -0.4608   -4.5776 H       1  CRO21       0.0311
    159 H2         23.2884   -0.6698   -5.1755 H       1  CRO21       0.0233
    160 H3         22.1748    0.5824   -5.7297 H       1  CRO21       0.0233
    161 H4         21.9942   -1.0755   -6.3116 H       1  CRO21       0.0233
    162 H5         23.3764   -2.5362   -3.6918 H       1  CRO21       0.0620
    163 H6         21.0277   -6.0923   -3.2308 H       1  CRO21       0.0618
    164 H7         23.2282   -4.9489   -3.2311 H       1  CRO21       0.0618
    165 H8         19.0845   -2.3919   -4.1785 H       1  CRO21       0.0620
    166 H9         18.9628   -4.8013   -3.6999 H       1  CRO21       0.0618
@<TRIPOS>BOND
     1   112   110    1
     2   113   110    1
     3   110   111    1
     4   110   107    1
     5   108   107    1
     6   100    96    1
     7   107   104    1
     8   107   105    1
     9    98    94    1
    10    97    92    1
    11   109   105    1
    12   102   104    1
    13   102    99    1
    14    94    96    1
    15    96    99    1
    16    96    91    1
    17   104   103    2
    18   105   106    1
    19    93    91    1
    20    93    86    1
    21   101    99    1
    22    38    33    1
    23    92    86   ar
    24    92    84   ar
    25    99    95    1
    26    87    82    1
    27    89    84    1
    28    91    85    1
    29    91    90    1
    30    86    77   ar
    31    88    83    1
    32    88    36    1
    33    23    18    1
    34    82    83   ar
    35    82    78   ar
    36    84    75   ar
    37    35    32    1
    38    33    36    1
    39    33    32    1
    40    33    37    1
    41    83    79   ar
    42    80    78    1
    43   115    36    1
    44    30    32    1
    45    30    13    1
    46    78    73   ar
    47    36   114    1
    48    58    57    1
    49    46    41    1
    50    32    34    1
    51    22    17    1
    52    39    37    1
    53    18    17   ar
    54    18    19   ar
    55    13    12   ar
    56    13    14   ar
    57    27    12    1
    58    60    57    1
    59    79    81    1
    60    79    74   ar
    61    28    14    1
    62    77    76    1
    63    77    70   ar
    64    75    70   ar
    65    75    69    1
    66    12    11   ar
    67    14    15   ar
    68    73    74   ar
    69    73    69    1
    70    17    16   ar
    71    57    52    1
    72    57    59    1
    73    31    19    1
    74    31    40    1
    75    74    71    1
    76    41    45    1
    77    41    40    1
    78    41    44    1
    79    19    20   ar
    80    70    68    1
    81    47    45    1
    82    11    26    1
    83    11    10   ar
    84    15    29    1
    85    15    10   ar
    86    48    44    1
    87    48    51    1
    88    52    51    1
    89    52    53    1
    90    69    63    1
    91    69    67    1
    92    65    63    1
    93    49    44    1
    94     5     2    1
    95    10     1    1
    96    40    42    1
    97    40    43    1
    98    44    50    1
    99    51    56    2
   100    16     1    1
   101    16    21   ar
   102    72    67    1
   103    63    62    1
   104    63    61    1
   105    54    53    1
   106    20    21   ar
   107    20    24    1
   108     1     2    1
   109     1     6    1
   110    53    55    1
   111    67    66    1
   112    67    64    1
   113     2     3    1
   114     2     4    1
   115    21    25    1
   116     6     8    1
   117     6     7    1
   118     6     9    1
   119   124   122    1
   120   127   123    1
   121   131   117    1
   122   117   116   ar
   123   117   118   ar
   124   122   116    1
   125   122   123    1
   126   126   123    1
   127   132   118    1
   128   116   121   ar
   129   118   119   ar
   130   123   125    1
   131   119   129    1
   132   119   120   ar
   133   121   120   ar
   134   121   128    1
   135   120   130    1
   136   141   139    1
   137   144   140    1
   138   148   134    1
   139   134   133   ar
   140   134   135   ar
   141   139   133    1
   142   139   140    1
   143   143   140    1
   144   149   135    1
   145   133   138   ar
   146   135   136   ar
   147   140   142    1
   148   136   146    1
   149   136   137   ar
   150   138   137   ar
   151   138   145    1
   152   137   147    1
   153   158   156    1
   154   161   157    1
   155   165   151    1
   156   151   150   ar
   157   151   152   ar
   158   156   150    1
   159   156   157    1
   160   160   157    1
   161   166   152    1
   162   150   155   ar
   163   152   153   ar
   164   157   159    1
   165   153   163    1
   166   153   154   ar
   167   155   154   ar
   168   155   162    1
   169   154   164    1
   170   122    52    1
   171   139    53    1
   172   156   105    1
