@<TRIPOS>MOLECULE
*****
 166 172 0 0 0
SMALL
GASTEIGER
@<TRIPOS>ATOM
      1 C             17.25     25.83     26.98  C.3    1  VEB        0.0151
      2 C1            17.03     27.37     27.07  C.3    1  VEB       -0.0517
      3 H             17.86     27.87     27.58    H    1  VEB        0.0241
      4 H1            16.11     27.59     27.63    H    1  VEB        0.0241
      5 H2            16.92     27.81     26.07    H    1  VEB        0.0241
      6 C2            17.61     25.35     28.41  C.3    1  VEB       -0.0517
      7 H3            18.57     25.78     28.73    H    1  VEB        0.0241
      8 H4             17.7     24.26     28.46    H    1  VEB        0.0241
      9 H5            16.85     25.67     29.14    H    1  VEB        0.0241
     10 C3            18.45     25.45     26.09 C.ar    1  VEB       -0.0372
     11 C4            19.45     26.38     25.72 C.ar    1  VEB       -0.0543
     12 C5            20.62     25.98     25.07 C.ar    1  VEB       -0.0197
     13 C6            20.84     24.62     24.78 C.ar    1  VEB        0.1206
     14 C7            19.84     23.69     25.09 C.ar    1  VEB       -0.0197
     15 C8            18.66     24.09     25.74 C.ar    1  VEB       -0.0543
     16 C9            15.92     25.23     26.46 C.ar    1  VEB       -0.0372
     17 C10           15.48     25.55     25.16 C.ar    1  VEB       -0.0543
     18 C11           14.18     25.21     24.73 C.ar    1  VEB       -0.0197
     19 C12            13.3     24.55      25.6 C.ar    1  VEB        0.1206
     20 C13           13.76     24.15     26.86 C.ar    1  VEB       -0.0197
     21 C14           15.05     24.49     27.29 C.ar    1  VEB       -0.0543
     22 H6            16.13     26.11     24.49    H    1  VEB        0.0622
     23 H7            13.83     25.51     23.74    H    1  VEB        0.0654
     24 H8             13.1      23.6     27.53    H    1  VEB        0.0654
     25 H9            15.34      24.2      28.3    H    1  VEB        0.0622
     26 H10           19.34     27.43     25.97    H    1  VEB        0.0622
     27 H11           21.37     26.72     24.82    H    1  VEB        0.0654
     28 H12            20.0     22.64     24.85    H    1  VEB        0.0654
     29 H13           17.92     23.35     26.01    H    1  VEB        0.0622
     30 O             22.03     24.18     24.23  O.3    1  VEB       -0.4893
     31 O1            11.99     24.35     25.23  O.3    1  VEB       -0.4893
     32 C15           23.27     24.88     24.47  C.3    1  VEB        0.1186
     33 C16           24.47     24.01     24.02  C.3    1  VEB        0.1229
     34 H14           23.37      25.1     25.54    H    1  VEB        0.0724
     35 H15           23.28     25.83     23.92    H    1  VEB        0.0724
     36 C17           25.81     24.71     24.36  C.3    1  VEB        0.1186
     37 O2            24.38     22.76     24.69  O.3    1  VEB       -0.3850
     38 H16           24.41     23.87     22.93    H    1  VEB        0.0661
     39 H17           23.45     22.46     24.59    H    1  VEB        0.2101
     40 C18           10.97     24.89      26.1  C.3    1  VEB        0.1186
     41 C19            9.55     24.57     25.55  C.3    1  VEB        0.1230
     42 H18           11.09     25.98     26.16    H    1  VEB        0.0724
     43 H19           11.05     24.48     27.11    H    1  VEB        0.0724
     44 C20            8.51     25.49     26.23  C.3    1  VEB        0.1215
     45 O3              9.2     23.22     25.84  O.3    1  VEB       -0.3850
     46 H20            9.53     24.75     24.47    H    1  VEB        0.0662
     47 H21            8.24     23.15     25.64    H    1  VEB        0.2101
     48 O4             7.18     25.11     25.81  O.3    1  VEB       -0.4617
     49 H22            8.71     26.54     25.96    H    1  VEB        0.0725
     50 H23             8.6      25.4     27.32    H    1  VEB        0.0725
     51 C21            6.13     25.81     26.34  C.2    1  VEB        0.3097
     52 C22            4.77     25.29     25.85  C.3    1  VEB        0.0508
     53 C23             4.0     24.63     27.02  C.3    1  VEB       -0.0525
     54 H24            4.58     23.81     27.46    H    1  VEB        0.0237
     55 H25            3.04     24.22     26.67    H    1  VEB        0.0237
     56 H26            3.78     25.36     27.81    H    1  VEB        0.0237
     57 O5             6.26     26.74     27.12  O.2    1  VEB       -0.2506
     58 C24            3.94     26.42      25.2  C.3    1  VEB       -0.0525
     59 H28            4.49     26.87     24.37    H    1  VEB        0.0237
     60 H29            3.72     27.22     25.93    H    1  VEB        0.0237
     61 H30            2.99     26.04     24.82    H    1  VEB        0.0237
     62 H31           32.91      22.7     27.43    H    1  VEB        0.0241
     63 H32           31.17     22.62     27.14    H    1  VEB        0.0241
     64 C25           32.14     22.78     26.65  C.3    1  VEB       -0.0517
     65 H33           31.42     25.21     27.74    H    1  VEB        0.0241
     66 H34            32.3     21.96     25.94    H    1  VEB        0.0241
     67 H35           33.18     25.08     27.68    H    1  VEB        0.0241
     68 C26           32.29     25.24     27.07  C.3    1  VEB       -0.0517
     69 H36           34.76     23.55     26.62    H    1  VEB        0.0622
     70 C27           32.17     24.17     25.94  C.3    1  VEB        0.0151
     71 C28           34.69     23.94     25.61 C.ar    1  VEB       -0.0543
     72 H37           30.19     26.21      26.0    H    1  VEB        0.0622
     73 H38           32.36     26.25     26.64    H    1  VEB        0.0241
     74 C29           30.83      24.3     25.16 C.ar    1  VEB       -0.0372
     75 C30           29.93     25.37     25.37 C.ar    1  VEB       -0.0543
     76 C31           33.43     24.29     25.06 C.ar    1  VEB       -0.0372
     77 H39           36.81     23.78     25.31    H    1  VEB        0.0654
     78 C32           35.87     24.09     24.87 C.ar    1  VEB       -0.0197
     79 C33           30.42     23.26     24.29 C.ar    1  VEB       -0.0543
     80 C34           28.63     25.34     24.83 C.ar    1  VEB       -0.0197
     81 H40            31.1     22.44     24.08    H    1  VEB        0.0622
     82 H41           27.95     26.16     25.05    H    1  VEB        0.0654
     83 C35           29.12     23.23     23.75 C.ar    1  VEB       -0.0197
     84 C36           28.21     24.25     24.05 C.ar    1  VEB        0.1206
     85 C37            33.4     24.81     23.75 C.ar    1  VEB       -0.0543
     86 H42           38.08     26.31     23.72    H    1  VEB        0.0724
     87 C38           35.83     24.62     23.57 C.ar    1  VEB        0.1206
     88 H43            28.8      22.4     23.14    H    1  VEB        0.0654
     89 O6             26.9     24.11     23.62  O.3    1  VEB       -0.4893
     90 H44           32.46      25.1      23.3    H    1  VEB        0.0622
     91 H45           38.43     24.69     24.35    H    1  VEB        0.0724
     92 C39            38.2     25.25     23.44  C.3    1  VEB        0.1186
     93 C40           34.59     24.96     23.01 C.ar    1  VEB       -0.0197
     94 O7            36.98     24.78     22.83  O.3    1  VEB       -0.4893
     95 O8            39.77     23.72     22.37  O.3    1  VEB       -0.3850
     96 H46           40.78     25.64     24.07    H    1  VEB        0.0725
     97 C41            39.4      25.1     22.48  C.3    1  VEB        0.1230
     98 H47           34.55     25.36      22.0    H    1  VEB        0.0654
     99 H48           40.66     23.73     21.96    H    1  VEB        0.2101
    100 C42           40.63     25.87     23.01  C.3    1  VEB        0.1215
    101 H49           39.13      25.5     21.49    H    1  VEB        0.0662
    102 H50           40.45     26.95     22.92    H    1  VEB        0.0725
    103 O9            41.81     25.49     22.26  O.3    1  VEB       -0.4617
    104 O10           43.12     26.86     23.52  O.2    1  VEB       -0.2506
    105 C43            43.0     26.04     22.63  C.2    1  VEB        0.3097
    106 C44           45.33     25.01     22.73  C.3    1  VEB       -0.0525
    107 H52           45.74     25.85      23.3    H    1  VEB        0.0237
    108 C45           44.17     25.48     21.81  C.3    1  VEB        0.0508
    109 H54           46.14     24.56     22.14    H    1  VEB        0.0237
    110 C46           44.67     26.53     20.78  C.3    1  VEB       -0.0525
    111 H55           45.05     27.42     21.29    H    1  VEB        0.0237
    112 H56           43.86     26.83     20.11    H    1  VEB        0.0237
    113 H57           45.49     26.12     20.17    H    1  VEB        0.0237
    114 H58           25.98     24.61     25.44    H    1  VEB        0.0724
    115 H59           25.75     25.78     24.12    H    1  VEB        0.0724
    116 C              3.41     22.27     24.37 C.ar    1 CRO0       -0.0476
    117 C1             2.24      21.5     24.35 C.ar    1 CRO0       -0.0586
    118 C2              2.3      20.1     24.37 C.ar    1 CRO0       -0.0615
    119 C3             3.55     19.45     24.41 C.ar    1 CRO0       -0.0617
    120 C4             4.73     20.22     24.44 C.ar    1 CRO0       -0.0615
    121 C5             4.66     21.62     24.42 C.ar    1 CRO0       -0.0586
    122 C6             3.27     23.79     24.35  C.3    1 CRO0       -0.0305
    123 C7             4.58      24.6     24.38  C.3    1 CRO0       -0.0613
    124 H1             2.71     24.08     23.45    H    1 CRO0        0.0311
    125 H2             5.15     24.38     25.29    H    1 CRO0        0.0233
    126 H3             4.37     25.67     24.35    H    1 CRO0        0.0233
    127 H4             5.21     24.36     23.51    H    1 CRO0        0.0233
    128 H5             5.59     22.18     24.44    H    1 CRO0        0.0620
    129 H6              3.6     18.37     24.43    H    1 CRO0        0.0618
    130 H7             5.69     19.72     24.48    H    1 CRO0        0.0618
    131 H8             1.27     21.98     24.31    H    1 CRO0        0.0620
    132 H9             1.39     19.51     24.35    H    1 CRO0        0.0618
    133 C             43.47     21.49     20.75 C.ar    1 CRO1       -0.0476
    134 C1             42.3     20.72     20.73 C.ar    1 CRO1       -0.0586
    135 C2            42.36     19.32     20.75 C.ar    1 CRO1       -0.0615
    136 C3            43.61     18.67     20.79 C.ar    1 CRO1       -0.0617
    137 C4            44.79     19.44     20.82 C.ar    1 CRO1       -0.0615
    138 C5            44.72     20.84      20.8 C.ar    1 CRO1       -0.0586
    139 C6            43.33     23.01     20.73  C.3    1 CRO1       -0.0305
    140 C7            44.64     23.82     20.76  C.3    1 CRO1       -0.0613
    141 H1            42.77      23.3     19.83    H    1 CRO1        0.0311
    142 H2            45.21      23.6     21.67    H    1 CRO1        0.0233
    143 H3            44.43     24.89     20.73    H    1 CRO1        0.0233
    144 H4            45.27     23.58     19.89    H    1 CRO1        0.0233
    145 H5            45.65      21.4     20.82    H    1 CRO1        0.0620
    146 H6            43.66     17.59     20.81    H    1 CRO1        0.0618
    147 H7            45.75     18.94     20.86    H    1 CRO1        0.0618
    148 H8            41.33      21.2     20.69    H    1 CRO1        0.0620
    149 H9            41.45     18.73     20.73    H    1 CRO1        0.0618
    150 C             41.81     21.46     19.33 C.ar    1 CRO2       -0.0476
    151 C1            40.64     20.69     19.31 C.ar    1 CRO2       -0.0586
    152 C2             40.7     19.29     19.33 C.ar    1 CRO2       -0.0615
    153 C3            41.95     18.64     19.37 C.ar    1 CRO2       -0.0617
    154 C4            43.13     19.41      19.4 C.ar    1 CRO2       -0.0615
    155 C5            43.06     20.81     19.38 C.ar    1 CRO2       -0.0586
    156 C6            41.67     22.98     19.31  C.3    1 CRO2       -0.0305
    157 C7            42.98     23.79     19.34  C.3    1 CRO2       -0.0613
    158 H1            41.11     23.27     18.41    H    1 CRO2        0.0311
    159 H2            43.55     23.57     20.25    H    1 CRO2        0.0233
    160 H3            42.77     24.86     19.31    H    1 CRO2        0.0233
    161 H4            43.61     23.55     18.47    H    1 CRO2        0.0233
    162 H5            43.99     21.37      19.4    H    1 CRO2        0.0620
    163 H6             42.0     17.56     19.39    H    1 CRO2        0.0618
    164 H7            44.09     18.91     19.44    H    1 CRO2        0.0618
    165 H8            39.67     21.17     19.27    H    1 CRO2        0.0620
    166 H9            39.79      18.7     19.31    H    1 CRO2        0.0618
@<TRIPOS>BOND
     1   112   110    1
     2   113   110    1
     3   110   111    1
     4   110   108    1
     5   101    97    1
     6   108   105    1
     7   108   106    1
     8    99    95    1
     9    98    93    1
    10   109   106    1
    11   103   105    1
    12   103   100    1
    13    95    97    1
    14    97   100    1
    15    97    92    1
    16   105   104    2
    17   106   107    1
    18    94    92    1
    19    94    87    1
    20   102   100    1
    21    38    33    1
    22    93    87   ar
    23    93    85   ar
    24   100    96    1
    25    88    83    1
    26    90    85    1
    27    92    86    1
    28    92    91    1
    29    87    78   ar
    30    89    84    1
    31    89    36    1
    32    23    18    1
    33    83    84   ar
    34    83    79   ar
    35    85    76   ar
    36    35    32    1
    37    33    36    1
    38    33    32    1
    39    33    37    1
    40    84    80   ar
    41    81    79    1
    42   115    36    1
    43    30    32    1
    44    30    13    1
    45    79    74   ar
    46    36   114    1
    47    59    58    1
    48    46    41    1
    49    32    34    1
    50    22    17    1
    51    39    37    1
    52    18    17   ar
    53    18    19   ar
    54    13    12   ar
    55    13    14   ar
    56    27    12    1
    57    61    58    1
    58    80    82    1
    59    80    75   ar
    60    28    14    1
    61    78    77    1
    62    78    71   ar
    63    76    71   ar
    64    76    70    1
    65    12    11   ar
    66    14    15   ar
    67    74    75   ar
    68    74    70    1
    69    17    16   ar
    70    58    52    1
    71    58    60    1
    72    31    19    1
    73    31    40    1
    74    75    72    1
    75    41    45    1
    76    41    40    1
    77    41    44    1
    78    19    20   ar
    79    71    69    1
    80    47    45    1
    81    11    26    1
    82    11    10   ar
    83    15    29    1
    84    15    10   ar
    85    48    44    1
    86    48    51    1
    87    52    51    1
    88    52    53    1
    89    70    64    1
    90    70    68    1
    91    66    64    1
    92    49    44    1
    93     5     2    1
    94    10     1    1
    95    40    42    1
    96    40    43    1
    97    44    50    1
    98    51    57    2
    99    16     1    1
   100    16    21   ar
   101    73    68    1
   102    64    63    1
   103    64    62    1
   104    55    53    1
   105    20    21   ar
   106    20    24    1
   107     1     2    1
   108     1     6    1
   109    53    54    1
   110    53    56    1
   111    68    67    1
   112    68    65    1
   113     2     3    1
   114     2     4    1
   115    21    25    1
   116     6     8    1
   117     6     7    1
   118     6     9    1
   119   124   122    1
   120   127   123    1
   121   131   117    1
   122   117   116   ar
   123   117   118   ar
   124   122   116    1
   125   122   123    1
   126   126   123    1
   127   132   118    1
   128   116   121   ar
   129   118   119   ar
   130   123   125    1
   131   119   129    1
   132   119   120   ar
   133   121   120   ar
   134   121   128    1
   135   120   130    1
   136   141   139    1
   137   144   140    1
   138   148   134    1
   139   134   133   ar
   140   134   135   ar
   141   139   133    1
   142   139   140    1
   143   143   140    1
   144   149   135    1
   145   133   138   ar
   146   135   136   ar
   147   140   142    1
   148   136   146    1
   149   136   137   ar
   150   138   137   ar
   151   138   145    1
   152   137   147    1
   153   158   156    1
   154   161   157    1
   155   165   151    1
   156   151   150   ar
   157   151   152   ar
   158   156   150    1
   159   156   157    1
   160   160   157    1
   161   166   152    1
   162   150   155   ar
   163   152   153   ar
   164   157   159    1
   165   153   163    1
   166   153   154   ar
   167   155   154   ar
   168   155   162    1
   169   154   164    1
   170   122    52    1
   171   139   106    1
   172   156   108    1
