@<TRIPOS>MOLECULE
*****
  150   155     1     0     0
SMALL
gas


@<TRIPOS>ATOM
      1 C           -7.2250     1.5990     2.5000 c3         1 VEB       0.014609
      2 C1          -7.4430     3.1330     2.6160 c3         1 VEB      -0.051690
      3 H           -6.6110     3.6280     3.1310 hc         1 VEB       0.024276
      4 H1          -8.3480     3.3630     3.1920 hc         1 VEB       0.024276
      5 H2          -7.5510     3.6080     1.6330 hc         1 VEB       0.024276
      6 C2          -6.8560     1.1120     3.9290 c3         1 VEB      -0.051690
      7 H3          -5.8950     1.5290     4.2560 hc         1 VEB       0.024276
      8 H4          -6.7650     0.0200     3.9800 hc         1 VEB       0.024276
      9 H5          -7.6030     1.4220     4.6700 hc         1 VEB       0.024276
     10 C3          -6.0050     1.2230     1.6190 ca         1 VEB      -0.037779
     11 C4          -4.9830     2.1450     1.3240 ca         1 VEB      -0.055557
     12 C5          -3.8010     1.7550     0.6740 ca         1 VEB      -0.031490
     13 C6          -3.6050     0.4280     0.3060 ca         1 VEB       0.075038
     14 C7          -4.6290    -0.4900     0.5370 ca         1 VEB      -0.031490
     15 C8          -5.8090    -0.1030     1.1940 ca         1 VEB      -0.055557
     16 C9          -8.5750     1.0250     1.9920 ca         1 VEB      -0.037779
     17 C10         -9.0370     1.3300     0.6960 ca         1 VEB      -0.055557
     18 C11        -10.3200     0.9480     0.2690 ca         1 VEB      -0.031490
     19 C12        -11.1710     0.2640     1.1330 ca         1 VEB       0.075038
     20 C13        -10.7080    -0.1140     2.3890 ca         1 VEB      -0.031490
     21 C14         -9.4310     0.2700     2.8160 ca         1 VEB      -0.055557
     22 H6          -8.4080     1.8930     0.0090 ha         1 VEB       0.062694
     23 H7         -10.6560     1.2070    -0.7310 ha         1 VEB       0.065055
     24 H8         -11.3300    -0.7100     3.0500 ha         1 VEB       0.065055
     25 H9          -9.1380    -0.0240     3.8200 ha         1 VEB       0.062694
     26 H10         -5.0630     3.1870     1.6200 ha         1 VEB       0.062694
     27 H11         -3.0520     2.5150     0.4800 ha         1 VEB       0.065055
     28 H12         -4.5030    -1.5280     0.2370 ha         1 VEB       0.065055
     29 H13         -6.5620    -0.8630     1.3970 ha         1 VEB       0.062694
     30 O           -2.4720    -0.0640    -0.2900 os         1 VEB      -0.343351
     31 O1         -12.4250    -0.0700     0.6850 os         1 VEB      -0.343351
     32 C15         -1.2540     0.6430     0.0090 c3         1 VEB       0.081542
     33 C16         -0.0590    -0.2190    -0.4360 c3         1 VEB       0.101650
     34 H14         -1.1900     0.8180     1.0910 h1         1 VEB       0.060081
     35 H15         -1.2390     1.5950    -0.5320 h1         1 VEB       0.060081
     36 C17          1.2780     0.4720    -0.1090 c3         1 VEB       0.081542
     37 O2          -0.1210    -1.4770     0.2570 oh         1 VEB      -0.388276
     38 H16         -0.1260    -0.4490    -1.5050 h1         1 VEB       0.065017
     39 H17         -1.0190    -1.8250     0.1010 ho         1 VEB       0.210692
     40 C18        -13.4620     0.4800     1.5210 c3         1 VEB       0.081544
     41 C19        -14.8470    -0.0210     1.0640 c3         1 VEB       0.101764
     42 H18        -13.4180     1.5730     1.4450 h1         1 VEB       0.060081
     43 H19        -13.3160     0.1830     2.5660 h1         1 VEB       0.060081
     44 C20        -15.9510     0.7880     1.7580 c3         1 VEB       0.084607
     45 O3         -14.9880    -1.4040     1.4230 oh         1 VEB      -0.388274
     46 H20        -14.9440     0.0370    -0.0260 h1         1 VEB       0.065019
     47 H21        -15.9030    -1.6550     1.2090 ho         1 VEB       0.210692
     48 O4         -17.2640     0.3730     1.3100 os         1 VEB      -0.312742
     49 H22        -15.8050     1.8520     1.5340 h1         1 VEB       0.060196
     50 H23        -15.9060     0.6240     2.8410 h1         1 VEB       0.060196
     51 C21        -18.2460     1.2280     1.7150 c          1 VEB       0.267164
     52 C22        -19.6720     0.8370     1.2940 c3         1 VEB       0.057309
     53 C23        -20.3020     0.1280     2.5120 c3         1 VEB      -0.049867
     54 H24        -19.7700    -0.7970     2.7620 hc         1 VEB       0.024155
     55 H25        -21.3570    -0.1100     2.3380 hc         1 VEB       0.024155
     56 H26        -20.2570     0.7610     3.4070 hc         1 VEB       0.024155
     57 O5         -18.0160     2.2120     2.4160 o          1 VEB      -0.265976
     58 C24        -20.4440     2.1770     1.1110 c3         1 VEB      -0.049867
     59 H28        -20.0000     2.7860     0.3160 hc         1 VEB       0.024155
     60 H29        -20.4330     2.7830     2.0250 hc         1 VEB       0.024155
     61 H30        -21.4960     2.0020     0.8600 hc         1 VEB       0.024155
     62 H31          8.3420    -1.4000     3.1580 hc         1 VEB       0.024276
     63 H32          6.5990    -1.4440     2.9590 hc         1 VEB       0.024276
     64 C25          7.5440    -1.3430     2.4100 c3         1 VEB      -0.051690
     65 H33          6.9470     1.1270     3.3740 hc         1 VEB       0.024276
     66 H34          7.6470    -2.2230     1.7630 hc         1 VEB       0.024276
     67 H35          8.6950     1.0120     3.2050 hc         1 VEB       0.024276
     68 C26          7.7610     1.1220     2.6390 c3         1 VEB      -0.051690
     69 H36         10.1560    -1.0150     2.0470 ha         1 VEB       0.062694
     70 C27          7.5850    -0.0150     1.5980 c3         1 VEB       0.014609
     71 C28         10.0680    -0.4840     1.1030 ca         1 VEB      -0.055557
     72 H37          5.5370     1.9480     1.7040 ha         1 VEB       0.062694
     73 H38          7.7960     2.1090     2.1620 hc         1 VEB       0.024276
     74 C29          6.2270     0.0660     0.8480 ca         1 VEB      -0.037779
     75 C30          5.2970     1.0990     1.0690 ca         1 VEB      -0.055557
     76 C31          8.8350     0.0590     0.6850 ca         1 VEB      -0.037779
     77 H39         12.1420    -0.8320     0.6840 ha         1 VEB       0.065055
     78 C32         11.2320    -0.3550     0.3340 ca         1 VEB      -0.031490
     79 C33          5.8340    -0.9650    -0.0260 ca         1 VEB      -0.055557
     80 C34          4.0060     1.0600     0.5180 ca         1 VEB      -0.031490
     81 H40          6.5200    -1.7760    -0.2630 ha         1 VEB       0.062694
     82 H41          3.3300     1.8790     0.7380 ha         1 VEB       0.065055
     83 C35          4.5430    -1.0040    -0.5740 ca         1 VEB      -0.031490
     84 C36          3.6070    -0.0170    -0.2680 ca         1 VEB       0.075038
     85 C37          8.8250     0.7440    -0.5420 ca         1 VEB      -0.055557
     86 H42         13.3390     2.0330    -0.8230 h1         1 VEB       0.060081
     87 C38         11.2030     0.3480    -0.8640 ca         1 VEB       0.075038
     88 H43          4.2560    -1.8370    -1.2120 ha         1 VEB       0.065055
     89 O6           2.3530    -0.2010    -0.7890 os         1 VEB      -0.343351
     90 H44          7.9100     1.1960    -0.9180 ha         1 VEB       0.062694
     91 H45         13.6700     0.4360    -0.0910 h1         1 VEB       0.060081
     92 C39         13.4770     0.9660    -1.0300 c3         1 VEB       0.081544
     93 C40          9.9920     0.8710    -1.3130 ca         1 VEB      -0.031490
     94 O7          12.2900     0.4830    -1.6850 os         1 VEB      -0.343351
     95 O8          15.0000    -0.6450    -2.0140 oh         1 VEB      -0.388274
     96 H46         16.2000     1.1540    -0.4690 h1         1 VEB       0.060196
     97 C41         14.6800     0.7570    -1.9630 c3         1 VEB       0.101764
     98 H47          9.9510     1.3910    -2.2670 ha         1 VEB       0.065055
     99 H48         15.8110    -0.7190    -2.5480 ho         1 VEB       0.210692
    100 C42         15.9160     1.5140    -1.4660 c3         1 VEB       0.084596
    101 H49         14.4320     1.0560    -2.9880 h1         1 VEB       0.065019
    102 H50         15.7220     2.5910    -1.4380 h1         1 VEB       0.060196
    103 O9          17.0020     1.2440    -2.3760 os         1 VEB      -0.312973
    104 O10         18.3510     2.5260    -1.0340 o          1 VEB      -0.266321
    105 C43         18.1940     1.8020    -2.0080 c          1 VEB       0.263728
    106 C44         19.6350    -0.1100    -2.7500 c3         1 VEB      -0.034642
    107 H52         18.9720    -0.5330    -1.9840 hc         1 VEB       0.028082
    108 C45         19.2870     1.3760    -2.9770 c3         1 VEB       0.042890
    109 H53         18.8890     1.5440    -3.9860 hc         1 VEB       0.040673
    110 H54         20.6500    -0.2110    -2.3410 hc         1 VEB       0.028082
    111 C46         20.5180     2.2680    -2.8220 c3         1 VEB      -0.053050
    112 H55         20.9530     2.1820    -1.8210 hc         1 VEB       0.023856
    113 H56         20.2570     3.3210    -2.9780 hc         1 VEB       0.023856
    114 H57         21.2890     2.0020    -3.5520 hc         1 VEB       0.023856
    115 H58          1.4330     0.4370     0.9770 h1         1 VEB       0.060081
    116 H59          1.2570     1.5120    -0.4540 h1         1 VEB       0.060081
    117 C47        -19.9710    -1.4900     0.0980 ca         1 CRO      -0.044120
    118 C49        -21.2530    -2.0730     0.1090 ca         1 CRO      -0.058741
    119 C51        -21.4180    -3.4510     0.2540 ca         1 CRO      -0.061987
    120 C53        -20.3030    -4.2710     0.3930 ca         1 CRO      -0.062252
    121 C55        -19.0270    -3.7120     0.3810 ca         1 CRO      -0.061987
    122 C57        -18.8620    -2.3310     0.2310 ca         1 CRO      -0.058741
    123 C59        -19.8450     0.0240    -0.0430 c3         1 CRO      -0.004518
    124 C61        -18.8900     0.4260    -1.1790 c3         1 CRO      -0.057373
    125 H27        -20.8280     0.3270    -0.4400 hc         1 CRO       0.036042
    126 H60        -17.8680     0.0690    -1.0290 hc         1 CRO       0.023692
    127 H62        -18.8550     1.5120    -1.3040 hc         1 CRO       0.023692
    128 H64        -19.2330    -0.0020    -2.1290 hc         1 CRO       0.023692
    129 H66        -17.8570    -1.9280     0.2130 ha         1 CRO       0.062576
    130 H68        -20.4280    -5.3450     0.5070 ha         1 CRO       0.062273
    131 H70        -18.1560    -4.3540     0.4850 ha         1 CRO       0.062283
    132 H72        -22.1420    -1.4540     0.0060 ha         1 CRO       0.062576
    133 H74        -22.4160    -3.8820     0.2600 ha         1 CRO       0.062283
    134 C48         19.4880    -2.4380    -3.6820 ca         1 CRO      -0.045167
    135 C50         18.2610    -3.1210    -3.6640 ca         1 CRO      -0.058776
    136 C52         18.2010    -4.4730    -3.3200 ca         1 CRO      -0.061988
    137 C54         19.3650    -5.1600    -2.9890 ca         1 CRO      -0.062252
    138 C56         20.5890    -4.4950    -2.9950 ca         1 CRO      -0.061988
    139 C58         20.6500    -3.1410    -3.3330 ca         1 CRO      -0.058776
    140 C60         19.5110    -0.9580    -4.0350 c3         1 CRO      -0.018271
    141 C62         20.6050    -0.6220    -5.0560 c3         1 CRO      -0.058391
    142 H51         18.5520    -0.7190    -4.5140 hc         1 CRO       0.034963
    143 H61         21.6090    -0.7150    -4.6280 hc         1 CRO       0.023657
    144 H63         20.4990     0.4050    -5.4210 hc         1 CRO       0.023657
    145 H65         20.5490    -1.2870    -5.9250 hc         1 CRO       0.023657
    146 H67         21.6170    -2.6450    -3.3160 ha         1 CRO       0.062575
    147 H69         19.3180    -6.2130    -2.7220 ha         1 CRO       0.062273
    148 H71         21.4970    -5.0300    -2.7320 ha         1 CRO       0.062283
    149 H73         17.3370    -2.6060    -3.9170 ha         1 CRO       0.062575
    150 H75         17.2430    -4.9870    -3.3100 ha         1 CRO       0.062283
@<TRIPOS>BOND
     1   113   111 1   
     2   114   111 1   
     3   111   112 1   
     4   111   108 1   
     5   109   108 1   
     6   101    97 1   
     7   108   105 1   
     8   108   106 1   
     9    99    95 1   
    10    98    93 1   
    11   110   106 1   
    12   103   105 1   
    13   103   100 1   
    14    95    97 1   
    15    97   100 1   
    16    97    92 1   
    17   105   104 2   
    18   106   107 1   
    19    94    92 1   
    20    94    87 1   
    21   102   100 1   
    22    38    33 1   
    23    93    87 ar  
    24    93    85 ar  
    25   100    96 1   
    26    88    83 1   
    27    90    85 1   
    28    92    86 1   
    29    92    91 1   
    30    87    78 ar  
    31    89    84 1   
    32    89    36 1   
    33    23    18 1   
    34    83    84 ar  
    35    83    79 ar  
    36    85    76 ar  
    37    35    32 1   
    38    33    36 1   
    39    33    32 1   
    40    33    37 1   
    41    84    80 ar  
    42    81    79 1   
    43   116    36 1   
    44    30    32 1   
    45    30    13 1   
    46    79    74 ar  
    47    36   115 1   
    48    59    58 1   
    49    46    41 1   
    50    32    34 1   
    51    22    17 1   
    52    39    37 1   
    53    18    17 ar  
    54    18    19 ar  
    55    13    12 ar  
    56    13    14 ar  
    57    27    12 1   
    58    61    58 1   
    59    80    82 1   
    60    80    75 ar  
    61    28    14 1   
    62    78    77 1   
    63    78    71 ar  
    64    76    71 ar  
    65    76    70 1   
    66    12    11 ar  
    67    14    15 ar  
    68    74    75 ar  
    69    74    70 1   
    70    17    16 ar  
    71    58    52 1   
    72    58    60 1   
    73    31    19 1   
    74    31    40 1   
    75    75    72 1   
    76    41    45 1   
    77    41    40 1   
    78    41    44 1   
    79    19    20 ar  
    80    71    69 1   
    81    47    45 1   
    82    11    26 1   
    83    11    10 ar  
    84    15    29 1   
    85    15    10 ar  
    86    48    44 1   
    87    48    51 1   
    88    52    51 1   
    89    52    53 1   
    90    70    64 1   
    91    70    68 1   
    92    66    64 1   
    93    49    44 1   
    94     5     2 1   
    95    10     1 1   
    96    40    42 1   
    97    40    43 1   
    98    44    50 1   
    99    51    57 2   
   100    16     1 1   
   101    16    21 ar  
   102    73    68 1   
   103    64    63 1   
   104    64    62 1   
   105    55    53 1   
   106    20    21 ar  
   107    20    24 1   
   108     1     2 1   
   109     1     6 1   
   110    53    54 1   
   111    53    56 1   
   112    68    67 1   
   113    68    65 1   
   114     2     3 1   
   115     2     4 1   
   116    21    25 1   
   117     6     8 1   
   118     6     7 1   
   119     6     9 1   
   120   125   123 1   
   121   128   124 1   
   122   132   118 1   
   123   118   117 ar  
   124   118   119 ar  
   125   123   117 1   
   126   123   124 1   
   127   127   124 1   
   128   133   119 1   
   129   117   122 ar  
   130   119   120 ar  
   131   124   126 1   
   132   120   130 1   
   133   120   121 ar  
   134   122   121 ar  
   135   122   129 1   
   136   121   131 1   
   137   142   140 1   
   138   145   141 1   
   139   149   135 1   
   140   135   134 ar  
   141   135   136 ar  
   142   140   134 1   
   143   140   141 1   
   144   144   141 1   
   145   150   136 1   
   146   134   139 ar  
   147   136   137 ar  
   148   141   143 1   
   149   137   147 1   
   150   137   138 ar  
   151   139   138 ar  
   152   139   146 1   
   153   138   148 1   
   154   123    52 1   
   155   140   106 1   
@<TRIPOS>SUBSTRUCTURE
     1 VEB         1 TEMP              0 ****  ****    0 ROOT
