@<TRIPOS>MOLECULE
*****
  150   155     1     0     0
SMALL
gas


@<TRIPOS>ATOM
      1 C          -11.2510     1.6300     3.0340 c3         1 VEB       0.014609
      2 C1         -11.4530     3.1640     3.1810 c3         1 VEB      -0.051690
      3 H          -10.6040     3.6420     3.6830 hc         1 VEB       0.024276
      4 H1         -12.3430     3.3900     3.7820 hc         1 VEB       0.024276
      5 H2         -11.5820     3.6580     2.2110 hc         1 VEB       0.024276
      6 C2         -10.8700     1.1150     4.4480 c3         1 VEB      -0.051690
      7 H3          -9.9050     1.5240     4.7740 hc         1 VEB       0.024276
      8 H4         -10.7810     0.0220     4.4790 hc         1 VEB       0.024276
      9 H5         -11.6110     1.4110     5.2010 hc         1 VEB       0.024276
     10 C3         -10.0590     1.2530     2.1210 ca         1 VEB      -0.037779
     11 C4          -9.0620     2.1800     1.7670 ca         1 VEB      -0.055557
     12 C5          -7.9190     1.7890     1.0560 ca         1 VEB      -0.031490
     13 C6          -7.7390     0.4580     0.6900 ca         1 VEB       0.075038
     14 C7          -8.7400    -0.4660     0.9810 ca         1 VEB      -0.031490
     15 C8          -9.8800    -0.0770     1.6970 ca         1 VEB      -0.055557
     16 C9         -12.6040     1.0760     2.5230 ca         1 VEB      -0.037779
     17 C10        -13.0680     1.4220     1.2360 ca         1 VEB      -0.055557
     18 C11        -14.3420     1.0450     0.7970 ca         1 VEB      -0.031490
     19 C12        -15.1810     0.3260     1.6410 ca         1 VEB       0.075038
     20 C13        -14.7180    -0.0960     2.8840 ca         1 VEB      -0.031490
     21 C14        -13.4460     0.2840     3.3240 ca         1 VEB      -0.055557
     22 H6         -12.4410     2.0100     0.5690 ha         1 VEB       0.062694
     23 H7         -14.6850     1.3360    -0.1910 ha         1 VEB       0.065055
     24 H8         -15.3420    -0.7150     3.5220 ha         1 VEB       0.065055
     25 H9         -13.1460    -0.0440     4.3150 ha         1 VEB       0.062694
     26 H10         -9.1350     3.2250     2.0550 ha         1 VEB       0.062694
     27 H11         -7.1850     2.5490     0.8090 ha         1 VEB       0.065055
     28 H12         -8.6250    -1.5040     0.6800 ha         1 VEB       0.065055
     29 H13        -10.6220    -0.8360     1.9420 ha         1 VEB       0.062694
     30 O           -6.6350    -0.0280     0.0390 os         1 VEB      -0.343351
     31 O1         -16.4410     0.0180     1.2000 os         1 VEB      -0.343351
     32 C15         -5.4040     0.6440     0.3620 c3         1 VEB       0.081542
     33 C16         -4.2280    -0.2440    -0.0680 c3         1 VEB       0.101650
     34 H14         -5.3490     0.8120     1.4460 h1         1 VEB       0.060081
     35 H15         -5.3580     1.6000    -0.1720 h1         1 VEB       0.060081
     36 C17         -2.8910     0.4170     0.3040 c3         1 VEB       0.081542
     37 O2          -4.3360    -1.5080     0.6090 oh         1 VEB      -0.388276
     38 H16         -4.2740    -0.4600    -1.1420 h1         1 VEB       0.065017
     39 H17         -5.2400    -1.8300     0.4310 ho         1 VEB       0.210692
     40 C18        -17.4420     0.6400     2.0280 c3         1 VEB       0.081544
     41 C19        -18.8390     0.2740     1.5130 c3         1 VEB       0.101764
     42 H18        -17.3040     1.7280     1.9860 h1         1 VEB       0.060081
     43 H19        -17.3470     0.2970     3.0650 h1         1 VEB       0.060081
     44 C20        -19.9020     1.1490     2.1840 c3         1 VEB       0.084596
     45 O3         -19.1170    -1.1020     1.8230 oh         1 VEB      -0.388274
     46 H20        -18.8900     0.3650     0.4220 h1         1 VEB       0.065019
     47 H21        -20.0210    -1.2760     1.5050 ho         1 VEB       0.210692
     48 O4         -21.1990     0.7690     1.6860 os         1 VEB      -0.312982
     49 H22        -19.7190     2.2060     1.9580 h1         1 VEB       0.060196
     50 H23        -19.8890     0.9880     3.2690 h1         1 VEB       0.060196
     51 C21        -22.2220     1.5030     2.2110 c          1 VEB       0.263425
     52 C22        -23.5560     1.0000     1.6990 c3         1 VEB       0.039496
     53 C23        -24.3060     0.3130     2.8330 c3         1 VEB      -0.053343
     54 H24        -23.7170    -0.5140     3.2450 hc         1 VEB       0.023845
     55 H25        -25.2610    -0.0920     2.4810 hc         1 VEB       0.023845
     56 H26        -24.5150     1.0080     3.6550 hc         1 VEB       0.023845
     57 O5         -22.0840     2.4250     3.0040 o          1 VEB      -0.266333
     58 C24        -24.3590     2.1600     1.1200 c3         1 VEB      -0.053343
     59 H27        -23.3790     0.2730     0.8980 hc         1 VEB       0.040359
     60 H28        -23.8010     2.6560     0.3190 hc         1 VEB       0.023845
     61 H29        -24.5820     2.9150     1.8830 hc         1 VEB       0.023845
     62 H30        -25.3090     1.8070     0.7050 hc         1 VEB       0.023845
     63 H31          4.2130    -1.3810     3.6830 hc         1 VEB       0.024276
     64 H32          2.4620    -1.4320     3.5550 hc         1 VEB       0.024276
     65 C25          3.3840    -1.3490     2.9670 c3         1 VEB      -0.051690
     66 H33          2.7990     1.1350     3.8810 hc         1 VEB       0.024276
     67 H34          3.4600    -2.2480     2.3440 hc         1 VEB       0.024276
     68 H35          4.5440     1.0390     3.6490 hc         1 VEB       0.024276
     69 C26          3.5870     1.1220     3.1180 c3         1 VEB      -0.051690
     70 H36          5.9480    -1.1940     2.3650 ha         1 VEB       0.062694
     71 C27          3.3920    -0.0460     2.1160 c3         1 VEB       0.014609
     72 C28          5.8290    -0.6010     1.4620 ca         1 VEB      -0.055557
     73 H37          1.3080     1.8740     2.2410 ha         1 VEB       0.062694
     74 H38          3.5880     2.0960     2.6140 hc         1 VEB       0.024276
     75 C29          2.0210    -0.0010     1.3900 ca         1 VEB      -0.037779
     76 C30          1.0820     1.0240     1.6030 ca         1 VEB      -0.055557
     77 C31          4.6040     0.0240     1.1530 ca         1 VEB      -0.037779
     78 H39          7.8670    -0.9930     0.8760 ha         1 VEB       0.065055
     79 C32          6.9450    -0.4740     0.6270 ca         1 VEB      -0.031490
     80 C33          1.6480    -1.0400     0.5160 ca         1 VEB      -0.055557
     81 C34         -0.1950     0.9790     1.0250 ca         1 VEB      -0.031490
     82 H40          2.3450    -1.8440     0.2880 ha         1 VEB       0.062694
     83 H41         -0.8770     1.7970     1.2310 ha         1 VEB       0.065055
     84 C35          0.3700    -1.0850    -0.0570 ca         1 VEB      -0.031490
     85 C36         -0.5710    -0.0970     0.2240 ca         1 VEB       0.075038
     86 C37          4.5500     0.7900    -0.0260 ca         1 VEB      -0.055557
     87 H42          8.9660     2.1290    -1.0930 h1         1 VEB       0.060081
     88 C38          6.8650     0.3020    -0.5230 ca         1 VEB       0.075038
     89 H43          0.0990    -1.9170    -0.7030 ha         1 VEB       0.065055
     90 O6          -1.8090    -0.2780    -0.3340 os         1 VEB      -0.343351
     91 H44          3.6340     1.3040    -0.3130 ha         1 VEB       0.062694
     92 H45          9.1160     0.9700     0.2530 h1         1 VEB       0.060081
     93 C39          9.0590     1.0670    -0.8390 c3         1 VEB       0.081544
     94 C40          5.6640     0.9120    -0.8650 ca         1 VEB      -0.031490
     95 O7           7.9100     0.4020    -1.3960 os         1 VEB      -0.343351
     96 O8          10.6240    -0.7830    -0.8460 oh         1 VEB      -0.388274
     97 H46         11.8120     1.5290    -0.3210 h1         1 VEB       0.060196
     98 C41         10.3120     0.4670    -1.4860 c3         1 VEB       0.101764
     99 H47          5.5900     1.4890    -1.7830 ha         1 VEB       0.065055
    100 H48         11.4430    -1.1080    -1.2660 ho         1 VEB       0.210692
    101 C42         11.5250     1.3940    -1.3700 c3         1 VEB       0.084607
    102 H49         10.1190     0.2340    -2.5390 h1         1 VEB       0.065019
    103 H50         11.3040     2.3630    -1.8300 h1         1 VEB       0.060196
    104 O9          12.6250     0.7430    -2.0430 os         1 VEB      -0.312733
    105 O10         13.6600     2.7640    -2.2580 o          1 VEB      -0.265963
    106 C43         13.6500     1.5520    -2.4330 c          1 VEB       0.267468
    107 C44         15.1630    -0.4050    -2.1360 c3         1 VEB      -0.031183
    108 H52         14.3070    -1.0810    -2.1000 hc         1 VEB       0.028393
    109 C45         14.7720     0.7450    -3.1350 c3         1 VEB       0.060686
    110 H54         15.2140     0.0140    -1.1200 hc         1 VEB       0.028393
    111 C46         15.9550     1.7280    -3.2910 c3         1 VEB      -0.049572
    112 H55         16.2880     2.0990    -2.3140 hc         1 VEB       0.024166
    113 H56         15.6730     2.6160    -3.8680 hc         1 VEB       0.024166
    114 H57         16.8130     1.2670    -3.7880 hc         1 VEB       0.024166
    115 H58         -2.7770     0.3790     1.3950 h1         1 VEB       0.060081
    116 H59         -2.8800     1.4570    -0.0410 h1         1 VEB       0.060081
    117 C47         16.4210    -2.7000    -2.0720 ca         1 CRO      -0.045156
    118 C49         15.3720    -3.3140    -1.3700 ca         1 CRO      -0.058776
    119 C51         15.3740    -4.6900    -1.1180 ca         1 CRO      -0.061988
    120 C53         16.4420    -5.4780    -1.5340 ca         1 CRO      -0.062252
    121 C55         17.5030    -4.8910    -2.2150 ca         1 CRO      -0.061988
    122 C57         17.4860    -3.5210    -2.4910 ca         1 CRO      -0.058776
    123 C59         16.4760    -1.1990    -2.3940 c3         1 CRO      -0.017981
    124 C61         17.6460    -0.5870    -1.5990 c3         1 CRO      -0.058380
    125 H51         16.7160    -1.1190    -3.4600 hc         1 CRO       0.034974
    126 H60         17.5180    -0.7440    -0.5220 hc         1 CRO       0.023657
    127 H62         17.7470     0.4860    -1.7690 hc         1 CRO       0.023657
    128 H64         18.6030    -1.0370    -1.8850 hc         1 CRO       0.023657
    129 H66         18.3260    -3.0930    -3.0340 ha         1 CRO       0.062575
    130 H68         16.4470    -6.5440    -1.3250 ha         1 CRO       0.062273
    131 H70         18.3460    -5.4990    -2.5310 ha         1 CRO       0.062283
    132 H72         14.5210    -2.7510    -1.0000 ha         1 CRO       0.062575
    133 H74         14.5380    -5.1430    -0.5920 ha         1 CRO       0.062283
    134 C48         13.7900    -1.1960    -4.6490 ca         1 CRO      -0.044109
    135 C50         12.5070    -1.6100    -4.2540 ca         1 CRO      -0.058740
    136 C52         12.1350    -2.9550    -4.3010 ca         1 CRO      -0.061987
    137 C54         13.0350    -3.9110    -4.7620 ca         1 CRO      -0.062252
    138 C56         14.3010    -3.5190    -5.1840 ca         1 CRO      -0.061987
    139 C58         14.6750    -2.1740    -5.1310 ca         1 CRO      -0.058740
    140 C60         14.1780     0.2800    -4.5410 c3         1 CRO      -0.004225
    141 C62         14.9920     0.7190    -5.7740 c3         1 CRO      -0.057362
    142 H53         13.2300     0.8240    -4.6800 hc         1 CRO       0.036053
    143 H61         16.0150     0.3320    -5.7550 hc         1 CRO       0.023692
    144 H63         15.0380     1.8100    -5.8480 hc         1 CRO       0.023692
    145 H65         14.5210     0.3650    -6.6990 hc         1 CRO       0.023692
    146 H67         15.6770    -1.9110    -5.4600 ha         1 CRO       0.062576
    147 H69         12.7510    -4.9590    -4.7950 ha         1 CRO       0.062273
    148 H71         15.0080    -4.2630    -5.5430 ha         1 CRO       0.062283
    149 H73         11.7780    -0.8850    -3.9050 ha         1 CRO       0.062576
    150 H75         11.1410    -3.2560    -3.9780 ha         1 CRO       0.062283
@<TRIPOS>BOND
     1   113   111 1   
     2   114   111 1   
     3   111   112 1   
     4   111   109 1   
     5   102    98 1   
     6   109   106 1   
     7   109   107 1   
     8   100    96 1   
     9    99    94 1   
    10   110   107 1   
    11   104   106 1   
    12   104   101 1   
    13    96    98 1   
    14    98   101 1   
    15    98    93 1   
    16   106   105 2   
    17   107   108 1   
    18    95    93 1   
    19    95    88 1   
    20   103   101 1   
    21    38    33 1   
    22    94    88 ar  
    23    94    86 ar  
    24   101    97 1   
    25    89    84 1   
    26    91    86 1   
    27    93    87 1   
    28    93    92 1   
    29    88    79 ar  
    30    90    85 1   
    31    90    36 1   
    32    23    18 1   
    33    84    85 ar  
    34    84    80 ar  
    35    86    77 ar  
    36    35    32 1   
    37    33    36 1   
    38    33    32 1   
    39    33    37 1   
    40    85    81 ar  
    41    82    80 1   
    42   116    36 1   
    43    30    32 1   
    44    30    13 1   
    45    80    75 ar  
    46    36   115 1   
    47    60    58 1   
    48    46    41 1   
    49    32    34 1   
    50    22    17 1   
    51    39    37 1   
    52    18    17 ar  
    53    18    19 ar  
    54    13    12 ar  
    55    13    14 ar  
    56    27    12 1   
    57    62    58 1   
    58    81    83 1   
    59    81    76 ar  
    60    28    14 1   
    61    79    78 1   
    62    79    72 ar  
    63    77    72 ar  
    64    77    71 1   
    65    12    11 ar  
    66    14    15 ar  
    67    59    52 1   
    68    75    76 ar  
    69    75    71 1   
    70    17    16 ar  
    71    58    52 1   
    72    58    61 1   
    73    31    19 1   
    74    31    40 1   
    75    76    73 1   
    76    41    45 1   
    77    41    40 1   
    78    41    44 1   
    79    19    20 ar  
    80    72    70 1   
    81    47    45 1   
    82    11    26 1   
    83    11    10 ar  
    84    15    29 1   
    85    15    10 ar  
    86    48    44 1   
    87    48    51 1   
    88    52    51 1   
    89    52    53 1   
    90    71    65 1   
    91    71    69 1   
    92    67    65 1   
    93    49    44 1   
    94     5     2 1   
    95    10     1 1   
    96    40    42 1   
    97    40    43 1   
    98    44    50 1   
    99    51    57 2   
   100    16     1 1   
   101    16    21 ar  
   102    74    69 1   
   103    65    64 1   
   104    65    63 1   
   105    55    53 1   
   106    20    21 ar  
   107    20    24 1   
   108     1     2 1   
   109     1     6 1   
   110    53    54 1   
   111    53    56 1   
   112    69    68 1   
   113    69    66 1   
   114     2     3 1   
   115     2     4 1   
   116    21    25 1   
   117     6     8 1   
   118     6     7 1   
   119     6     9 1   
   120   125   123 1   
   121   128   124 1   
   122   132   118 1   
   123   118   117 ar  
   124   118   119 ar  
   125   123   117 1   
   126   123   124 1   
   127   127   124 1   
   128   133   119 1   
   129   117   122 ar  
   130   119   120 ar  
   131   124   126 1   
   132   120   130 1   
   133   120   121 ar  
   134   122   121 ar  
   135   122   129 1   
   136   121   131 1   
   137   142   140 1   
   138   145   141 1   
   139   149   135 1   
   140   135   134 ar  
   141   135   136 ar  
   142   140   134 1   
   143   140   141 1   
   144   144   141 1   
   145   150   136 1   
   146   134   139 ar  
   147   136   137 ar  
   148   141   143 1   
   149   137   147 1   
   150   137   138 ar  
   151   139   138 ar  
   152   139   146 1   
   153   138   148 1   
   154   123   107 1   
   155   140   109 1   
@<TRIPOS>SUBSTRUCTURE
     1 VEB         1 TEMP              0 ****  ****    0 ROOT
