@<TRIPOS>MOLECULE
*****
 150 155 0 0 0
SMALL
GASTEIGER

@<TRIPOS>ATOM
      1 C         -11.2508    1.6300    3.0338 C.3     1  VEB1        0.0151
      2 C1        -11.4529    3.1639    3.1808 C.3     1  VEB1       -0.0517
      3 H         -10.6038    3.6420    3.6832 H       1  VEB1        0.0241
      4 H1        -12.3427    3.3903    3.7822 H       1  VEB1        0.0241
      5 H2        -11.5822    3.6582    2.2105 H       1  VEB1        0.0241
      6 C2        -10.8701    1.1152    4.4484 C.3     1  VEB1       -0.0517
      7 H3         -9.9053    1.5245    4.7738 H       1  VEB1        0.0241
      8 H4        -10.7807    0.0225    4.4787 H       1  VEB1        0.0241
      9 H5        -11.6112    1.4110    5.2008 H       1  VEB1        0.0241
     10 C3        -10.0587    1.2533    2.1213 C.ar    1  VEB1       -0.0372
     11 C4         -9.0623    2.1796    1.7667 C.ar    1  VEB1       -0.0543
     12 C5         -7.9192    1.7890    1.0561 C.ar    1  VEB1       -0.0197
     13 C6         -7.7385    0.4580    0.6904 C.ar    1  VEB1        0.1206
     14 C7         -8.7401   -0.4656    0.9809 C.ar    1  VEB1       -0.0197
     15 C8         -9.8805   -0.0771    1.6969 C.ar    1  VEB1       -0.0543
     16 C9        -12.6038    1.0762    2.5229 C.ar    1  VEB1       -0.0372
     17 C10       -13.0675    1.4218    1.2365 C.ar    1  VEB1       -0.0543
     18 C11       -14.3424    1.0452    0.7975 C.ar    1  VEB1       -0.0197
     19 C12       -15.1807    0.3263    1.6415 C.ar    1  VEB1        0.1206
     20 C13       -14.7183   -0.0961    2.8835 C.ar    1  VEB1       -0.0197
     21 C14       -13.4463    0.2837    3.3236 C.ar    1  VEB1       -0.0543
     22 H6        -12.4410    2.0105    0.5685 H       1  VEB1        0.0622
     23 H7        -14.6852    1.3364   -0.1911 H       1  VEB1        0.0654
     24 H8        -15.3423   -0.7152    3.5219 H       1  VEB1        0.0654
     25 H9        -13.1465   -0.0437    4.3150 H       1  VEB1        0.0622
     26 H10        -9.1347    3.2247    2.0548 H       1  VEB1        0.0622
     27 H11        -7.1851    2.5487    0.8089 H       1  VEB1        0.0654
     28 H12        -8.6250   -1.5038    0.6805 H       1  VEB1        0.0654
     29 H13       -10.6220   -0.8361    1.9418 H       1  VEB1        0.0622
     30 O          -6.6345   -0.0282    0.0389 O.3     1  VEB1       -0.4893
     31 O1        -16.4405    0.0181    1.1997 O.3     1  VEB1       -0.4893
     32 C15        -5.4044    0.6441    0.3620 C.3     1  VEB1        0.1186
     33 C16        -4.2278   -0.2443   -0.0684 C.3     1  VEB1        0.1229
     34 H14        -5.3486    0.8122    1.4457 H       1  VEB1        0.0724
     35 H15        -5.3583    1.5996   -0.1725 H       1  VEB1        0.0724
     36 C17        -2.8911    0.4167    0.3041 C.3     1  VEB1        0.1186
     37 O2         -4.3361   -1.5076    0.6090 O.3     1  VEB1       -0.3850
     38 H16        -4.2735   -0.4597   -1.1416 H       1  VEB1        0.0661
     39 H17        -5.2399   -1.8298    0.4315 H       1  VEB1        0.2101
     40 C18       -17.4418    0.6400    2.0276 C.3     1  VEB1        0.1186
     41 C19       -18.8394    0.2735    1.5130 C.3     1  VEB1        0.1230
     42 H18       -17.3038    1.7280    1.9860 H       1  VEB1        0.0724
     43 H19       -17.3466    0.2970    3.0648 H       1  VEB1        0.0724
     44 C20       -19.9020    1.1492    2.1841 C.3     1  VEB1        0.1215
     45 O3        -19.1169   -1.1019    1.8234 O.3     1  VEB1       -0.3850
     46 H20       -18.8902    0.3652    0.4223 H       1  VEB1        0.0662
     47 H21       -20.0214   -1.2755    1.5048 H       1  VEB1        0.2101
     48 O4        -21.1990    0.7692    1.6860 O.3     1  VEB1       -0.4617
     49 H22       -19.7187    2.2061    1.9583 H       1  VEB1        0.0725
     50 H23       -19.8889    0.9882    3.2690 H       1  VEB1        0.0725
     51 C21       -22.2220    1.5028    2.2114 C.2     1  VEB1        0.3097
     52 C22       -23.5565    1.0004    1.6988 C.3     1  VEB1        0.0508
     53 C23       -24.3065    0.3127    2.8334 C.3     1  VEB1       -0.0525
     54 H24       -23.7168   -0.5138    3.2448 H       1  VEB1        0.0237
     55 H25       -25.2608   -0.0925    2.4814 H       1  VEB1        0.0237
     56 H26       -24.5146    1.0078    3.6547 H       1  VEB1        0.0237
     57 O5        -22.0841    2.4252    3.0041 O.2     1  VEB1       -0.2506
     58 C24       -24.3592    2.1600    1.1201 C.3     1  VEB1       -0.0525
     59 H27       -23.3789    0.2726    0.8977 H       1  VEB1        0.0408
     60 H28       -23.8013    2.6565    0.3188 H       1  VEB1        0.0237
     61 H29       -24.5821    2.9148    1.8825 H       1  VEB1        0.0237
     62 H30       -25.3091    1.8070    0.7052 H       1  VEB1        0.0237
     63 H31         4.2132   -1.3807    3.6829 H       1  VEB1        0.0241
     64 H32         2.4616   -1.4320    3.5554 H       1  VEB1        0.0241
     65 C25         3.3841   -1.3489    2.9668 C.3     1  VEB1       -0.0517
     66 H33         2.7993    1.1351    3.8807 H       1  VEB1        0.0241
     67 H34         3.4601   -2.2481    2.3439 H       1  VEB1        0.0241
     68 H35         4.5437    1.0391    3.6488 H       1  VEB1        0.0241
     69 C26         3.5869    1.1217    3.1178 C.3     1  VEB1       -0.0517
     70 H36         5.9477   -1.1943    2.3646 H       1  VEB1        0.0622
     71 C27         3.3924   -0.0465    2.1161 C.3     1  VEB1        0.0151
     72 C28         5.8293   -0.6007    1.4623 C.ar    1  VEB1       -0.0543
     73 H37         1.3077    1.8737    2.2409 H       1  VEB1        0.0622
     74 H38         3.5880    2.0959    2.6139 H       1  VEB1        0.0241
     75 C29         2.0213   -0.0007    1.3904 C.ar    1  VEB1       -0.0372
     76 C30         1.0820    1.0235    1.6032 C.ar    1  VEB1       -0.0543
     77 C31         4.6035    0.0237    1.1535 C.ar    1  VEB1       -0.0372
     78 H39         7.8674   -0.9931    0.8756 H       1  VEB1        0.0654
     79 C32         6.9451   -0.4742    0.6271 C.ar    1  VEB1       -0.0197
     80 C33         1.6480   -1.0397    0.5158 C.ar    1  VEB1       -0.0543
     81 C34        -0.1952    0.9791    1.0246 C.ar    1  VEB1       -0.0197
     82 H40         2.3452   -1.8441    0.2882 H       1  VEB1        0.0622
     83 H41        -0.8772    1.7972    1.2307 H       1  VEB1        0.0654
     84 C35         0.3700   -1.0849   -0.0571 C.ar    1  VEB1       -0.0197
     85 C36        -0.5706   -0.0965    0.2244 C.ar    1  VEB1        0.1206
     86 C37         4.5496    0.7905   -0.0265 C.ar    1  VEB1       -0.0543
     87 H42         8.9660    2.1287   -1.0935 H       1  VEB1        0.0724
     88 C38         6.8649    0.3017   -0.5228 C.ar    1  VEB1        0.1206
     89 H43         0.0994   -1.9170   -0.7025 H       1  VEB1        0.0654
     90 O6         -1.8086   -0.2775   -0.3338 O.3     1  VEB1       -0.4893
     91 H44         3.6341    1.3045   -0.3126 H       1  VEB1        0.0622
     92 H45         9.1161    0.9700    0.2525 H       1  VEB1        0.0724
     93 C39         9.0588    1.0669   -0.8386 C.3     1  VEB1        0.1186
     94 C40         5.6640    0.9124   -0.8654 C.ar    1  VEB1       -0.0197
     95 O7          7.9099    0.4015   -1.3960 O.3     1  VEB1       -0.4893
     96 O8         10.6242   -0.7834   -0.8462 O.3     1  VEB1       -0.3850
     97 H46        11.8120    1.5292   -0.3212 H       1  VEB1        0.0725
     98 C41        10.3119    0.4670   -1.4855 C.3     1  VEB1        0.1230
     99 H47         5.5904    1.4887   -1.7830 H       1  VEB1        0.0654
    100 H48        11.4431   -1.1078   -1.2660 H       1  VEB1        0.2101
    101 C42        11.5248    1.3936   -1.3696 C.3     1  VEB1        0.1215
    102 H49        10.1186    0.2338   -2.5387 H       1  VEB1        0.0662
    103 H50        11.3038    2.3626   -1.8304 H       1  VEB1        0.0725
    104 O9         12.6248    0.7434   -2.0430 O.3     1  VEB1       -0.4617
    105 O10        13.6600    2.7640   -2.2581 O.2     1  VEB1       -0.2506
    106 C43        13.6498    1.5525   -2.4334 C.2     1  VEB1        0.3097
    107 C44        15.1628   -0.4048   -2.1361 C.3     1  VEB1       -0.0525
    108 H52        14.3071   -1.0811   -2.0997 H       1  VEB1        0.0237
    109 C45        14.7723    0.7445   -3.1349 C.3     1  VEB1        0.0508
    110 H54        15.2141    0.0144   -1.1198 H       1  VEB1        0.0237
    111 C46        15.9547    1.7275   -3.2905 C.3     1  VEB1       -0.0525
    112 H55        16.2884    2.0989   -2.3143 H       1  VEB1        0.0237
    113 H56        15.6728    2.6157   -3.8678 H       1  VEB1        0.0237
    114 H57        16.8132    1.2669   -3.7878 H       1  VEB1        0.0237
    115 H58        -2.7772    0.3794    1.3953 H       1  VEB1        0.0724
    116 H59        -2.8801    1.4571   -0.0409 H       1  VEB1        0.0724
    117 C          16.4209   -2.6999   -2.0717 C.ar    1  CRO01      -0.0476
    118 C1         15.3718   -3.3140   -1.3697 C.ar    1  CRO01      -0.0586
    119 C2         15.3745   -4.6903   -1.1182 C.ar    1  CRO01      -0.0615
    120 C3         16.4421   -5.4779   -1.5341 C.ar    1  CRO01      -0.0617
    121 C4         17.5031   -4.8914   -2.2146 C.ar    1  CRO01      -0.0615
    122 C5         17.4860   -3.5211   -2.4911 C.ar    1  CRO01      -0.0586
    123 C6         16.4758   -1.1992   -2.3940 C.3     1  CRO01      -0.0305
    124 C7         17.6458   -0.5873   -1.5990 C.3     1  CRO01      -0.0613
    125 H1         16.7164   -1.1191   -3.4603 H       1  CRO01       0.0311
    126 H2         17.5183   -0.7440   -0.5219 H       1  CRO01       0.0233
    127 H3         17.7475    0.4857   -1.7692 H       1  CRO01       0.0233
    128 H4         18.6032   -1.0374   -1.8848 H       1  CRO01       0.0233
    129 H5         18.3265   -3.0933   -3.0335 H       1  CRO01       0.0620
    130 H6         16.4467   -6.5439   -1.3251 H       1  CRO01       0.0618
    131 H7         18.3464   -5.4990   -2.5315 H       1  CRO01       0.0618
    132 H8         14.5211   -2.7510   -1.0002 H       1  CRO01       0.0620
    133 H9         14.5380   -5.1432   -0.5918 H       1  CRO01       0.0618
    134 C          13.7905   -1.1965   -4.6486 C.ar    1  CRO11      -0.0476
    135 C1         12.5071   -1.6102   -4.2541 C.ar    1  CRO11      -0.0586
    136 C2         12.1349   -2.9554   -4.3011 C.ar    1  CRO11      -0.0615
    137 C3         13.0346   -3.9106   -4.7624 C.ar    1  CRO11      -0.0617
    138 C4         14.3013   -3.5188   -5.1840 C.ar    1  CRO11      -0.0615
    139 C5         14.6748   -2.1736   -5.1309 C.ar    1  CRO11      -0.0586
    140 C6         14.1778    0.2796   -4.5406 C.3     1  CRO11      -0.0305
    141 C7         14.9919    0.7189   -5.7740 C.3     1  CRO11      -0.0613
    142 H1         13.2304    0.8242   -4.6802 H       1  CRO11       0.0311
    143 H2         16.0154    0.3320   -5.7555 H       1  CRO11       0.0233
    144 H3         15.0384    1.8102   -5.8480 H       1  CRO11       0.0233
    145 H4         14.5207    0.3650   -6.6991 H       1  CRO11       0.0233
    146 H5         15.6768   -1.9115   -5.4595 H       1  CRO11       0.0620
    147 H6         12.7506   -4.9587   -4.7955 H       1  CRO11       0.0618
    148 H7         15.0080   -4.2625   -5.5432 H       1  CRO11       0.0618
    149 H8         11.7780   -0.8851   -3.9054 H       1  CRO11       0.0620
    150 H9         11.1414   -3.2564   -3.9782 H       1  CRO11       0.0618
@<TRIPOS>BOND
     1   113   111    1
     2   114   111    1
     3   111   112    1
     4   111   109    1
     5   102    98    1
     6   109   106    1
     7   109   107    1
     8   100    96    1
     9    99    94    1
    10   110   107    1
    11   104   106    1
    12   104   101    1
    13    96    98    1
    14    98   101    1
    15    98    93    1
    16   106   105    2
    17   107   108    1
    18    95    93    1
    19    95    88    1
    20   103   101    1
    21    38    33    1
    22    94    88   ar
    23    94    86   ar
    24   101    97    1
    25    89    84    1
    26    91    86    1
    27    93    87    1
    28    93    92    1
    29    88    79   ar
    30    90    85    1
    31    90    36    1
    32    23    18    1
    33    84    85   ar
    34    84    80   ar
    35    86    77   ar
    36    35    32    1
    37    33    36    1
    38    33    32    1
    39    33    37    1
    40    85    81   ar
    41    82    80    1
    42   116    36    1
    43    30    32    1
    44    30    13    1
    45    80    75   ar
    46    36   115    1
    47    60    58    1
    48    46    41    1
    49    32    34    1
    50    22    17    1
    51    39    37    1
    52    18    17   ar
    53    18    19   ar
    54    13    12   ar
    55    13    14   ar
    56    27    12    1
    57    62    58    1
    58    81    83    1
    59    81    76   ar
    60    28    14    1
    61    79    78    1
    62    79    72   ar
    63    77    72   ar
    64    77    71    1
    65    12    11   ar
    66    14    15   ar
    67    59    52    1
    68    75    76   ar
    69    75    71    1
    70    17    16   ar
    71    58    52    1
    72    58    61    1
    73    31    19    1
    74    31    40    1
    75    76    73    1
    76    41    45    1
    77    41    40    1
    78    41    44    1
    79    19    20   ar
    80    72    70    1
    81    47    45    1
    82    11    26    1
    83    11    10   ar
    84    15    29    1
    85    15    10   ar
    86    48    44    1
    87    48    51    1
    88    52    51    1
    89    52    53    1
    90    71    65    1
    91    71    69    1
    92    67    65    1
    93    49    44    1
    94     5     2    1
    95    10     1    1
    96    40    42    1
    97    40    43    1
    98    44    50    1
    99    51    57    2
   100    16     1    1
   101    16    21   ar
   102    74    69    1
   103    65    64    1
   104    65    63    1
   105    55    53    1
   106    20    21   ar
   107    20    24    1
   108     1     2    1
   109     1     6    1
   110    53    54    1
   111    53    56    1
   112    69    68    1
   113    69    66    1
   114     2     3    1
   115     2     4    1
   116    21    25    1
   117     6     8    1
   118     6     7    1
   119     6     9    1
   120   125   123    1
   121   128   124    1
   122   132   118    1
   123   118   117   ar
   124   118   119   ar
   125   123   117    1
   126   123   124    1
   127   127   124    1
   128   133   119    1
   129   117   122   ar
   130   119   120   ar
   131   124   126    1
   132   120   130    1
   133   120   121   ar
   134   122   121   ar
   135   122   129    1
   136   121   131    1
   137   142   140    1
   138   145   141    1
   139   149   135    1
   140   135   134   ar
   141   135   136   ar
   142   140   134    1
   143   140   141    1
   144   144   141    1
   145   150   136    1
   146   134   139   ar
   147   136   137   ar
   148   141   143    1
   149   137   147    1
   150   137   138   ar
   151   139   138   ar
   152   139   146    1
   153   138   148    1
   154   123   107    1
   155   140   109    1
