@<TRIPOS>MOLECULE
*****
 166 172 0 0 0
SMALL
GASTEIGER

@<TRIPOS>ATOM
      1 C          -8.9677    1.9189    3.0285 C.3     1  VEB1        0.0151
      2 C1         -9.1925    3.4524    3.1454 C.3     1  VEB1       -0.0517
      3 H          -8.3597    3.9511    3.6555 H       1  VEB1        0.0241
      4 H1        -10.0954    3.6777    3.7273 H       1  VEB1        0.0241
      5 H2         -9.3094    3.9274    2.1641 H       1  VEB1        0.0241
      6 C2         -8.5887    1.4353    4.4554 C.3     1  VEB1       -0.0517
      7 H3         -7.6314    1.8627    4.7799 H       1  VEB1        0.0241
      8 H4         -8.4846    0.3445    4.5048 H       1  VEB1        0.0241
      9 H5         -9.3378    1.7348    5.1982 H       1  VEB1        0.0241
     10 C3         -7.7546    1.5477    2.1385 C.ar    1  VEB1       -0.0372
     11 C4         -6.7420    2.4742    1.8276 C.ar    1  VEB1       -0.0543
     12 C5         -5.5706    2.0883    1.1590 C.ar    1  VEB1       -0.0197
     13 C6         -5.3762    0.7609    0.7896 C.ar    1  VEB1        0.1206
     14 C7         -6.3915   -0.1621    1.0360 C.ar    1  VEB1       -0.0197
     15 C8         -7.5601    0.2212    1.7114 C.ar    1  VEB1       -0.0543
     16 C9        -10.3135    1.3356    2.5241 C.ar    1  VEB1       -0.0372
     17 C10       -10.7862    1.6486    1.2329 C.ar    1  VEB1       -0.0543
     18 C11       -12.0603    1.2462    0.8040 C.ar    1  VEB1       -0.0197
     19 C12       -12.8919    0.5327    1.6613 C.ar    1  VEB1        0.1206
     20 C13       -12.4192    0.1462    2.9111 C.ar    1  VEB1       -0.0197
     21 C14       -11.1497    0.5519    3.3411 C.ar    1  VEB1       -0.0543
     22 H6        -10.1686    2.2317    0.5517 H       1  VEB1        0.0622
     23 H7        -12.4054    1.5118   -0.1911 H       1  VEB1        0.0654
     24 H8        -13.0310   -0.4692    3.5647 H       1  VEB1        0.0654
     25 H9        -10.8470    0.2497    4.3398 H       1  VEB1        0.0622
     26 H10        -6.8218    3.5167    2.1236 H       1  VEB1        0.0622
     27 H11        -4.8268    2.8497    0.9491 H       1  VEB1        0.0654
     28 H12        -6.2656   -1.1988    0.7340 H       1  VEB1        0.0654
     29 H13        -8.3079   -0.5406    1.9263 H       1  VEB1        0.0622
     30 O          -4.2504    0.2749    0.1758 O.3     1  VEB1       -0.4893
     31 O1        -14.1433    0.1802    1.2216 O.3     1  VEB1       -0.4893
     32 C15        -3.0291    0.9640    0.5024 C.3     1  VEB1        0.1186
     33 C16        -1.8397    0.0868    0.0786 C.3     1  VEB1        0.1229
     34 H14        -2.9820    1.1352    1.5858 H       1  VEB1        0.0724
     35 H15        -2.9914    1.9181   -0.0351 H       1  VEB1        0.0724
     36 C17        -0.5040    0.7577    0.4438 C.3     1  VEB1        0.1186
     37 O2         -1.9361   -1.1742    0.7624 O.3     1  VEB1       -0.3850
     38 H16        -1.8841   -0.1356   -0.9934 H       1  VEB1        0.0661
     39 H17        -2.8356   -1.5076    0.5835 H       1  VEB1        0.2101
     40 C18       -15.1734    0.7683    2.0402 C.3     1  VEB1        0.1186
     41 C19       -16.5620    0.2561    1.6123 C.3     1  VEB1        0.1230
     42 H18       -15.1243    1.8577    1.9178 H       1  VEB1        0.0724
     43 H19       -15.0211    0.5150    3.0961 H       1  VEB1        0.0724
     44 C20       -17.6547    1.1051    2.2755 C.3     1  VEB1        0.1215
     45 O3        -16.7130   -1.1079    2.0327 O.3     1  VEB1       -0.3850
     46 H20       -16.6657    0.2668    0.5218 H       1  VEB1        0.0662
     47 H21       -17.6385   -1.3539    1.8606 H       1  VEB1        0.2101
     48 O4        -18.9702    0.6846    1.8459 O.3     1  VEB1       -0.4617
     49 H22       -17.4961    2.1572    2.0090 H       1  VEB1        0.0725
     50 H23       -17.6097    0.9844    3.3647 H       1  VEB1        0.0725
     51 C21       -19.9415    1.5774    2.1897 C.2     1  VEB1        0.3097
     52 C22       -21.3674    1.1688    1.7877 C.3     1  VEB1        0.0508
     53 C23       -21.9738    0.4494    3.0105 C.3     1  VEB1       -0.0525
     54 H24       -21.4290   -0.4699    3.2512 H       1  VEB1        0.0237
     55 H25       -23.0284    0.2008    2.8490 H       1  VEB1        0.0237
     56 H26       -21.9236    1.0806    3.9064 H       1  VEB1        0.0237
     57 O5        -19.7039    2.6005    2.8281 O.2     1  VEB1       -0.2506
     58 C24       -22.1614    2.4961    1.6121 C.3     1  VEB1       -0.0525
     59 H28       -21.7327    3.1148    0.8161 H       1  VEB1        0.0237
     60 H29       -22.1542    3.0993    2.5280 H       1  VEB1        0.0237
     61 H30       -23.2125    2.3044    1.3670 H       1  VEB1        0.0237
     62 H31         6.6529   -1.0641    3.7270 H       1  VEB1        0.0241
     63 H32         4.9020   -1.1321    3.6040 H       1  VEB1        0.0241
     64 C25         5.8214   -1.0267    3.0141 C.3     1  VEB1       -0.0517
     65 H33         5.2175    1.4380    3.9772 H       1  VEB1        0.0241
     66 H34         5.9062   -1.9121    2.3729 H       1  VEB1        0.0241
     67 H35         6.9617    1.3546    3.7407 H       1  VEB1        0.0241
     68 C26         6.0037    1.4426    3.2127 C.3     1  VEB1       -0.0517
     69 H36         8.3956   -0.7840    2.4436 H       1  VEB1        0.0622
     70 C27         5.8121    0.2927    2.1892 C.3     1  VEB1        0.0151
     71 C28         8.2621   -0.2018    1.5358 C.ar    1  VEB1       -0.0543
     72 H37         3.7247    2.2103    2.3470 H       1  VEB1        0.0622
     73 H38         5.9999    2.4259    2.7268 H       1  VEB1        0.0241
     74 C29         4.4329    0.3431    1.4762 C.ar    1  VEB1       -0.0372
     75 C30         3.4927    1.3634    1.7070 C.ar    1  VEB1       -0.0543
     76 C31         7.0195    0.3878    1.2230 C.ar    1  VEB1       -0.0372
     77 H39        10.3062   -0.5573    0.9525 H       1  VEB1        0.0654
     78 C32         9.3757   -0.0563    0.6987 C.ar    1  VEB1       -0.0197
     79 C33         4.0501   -0.6898    0.5990 C.ar    1  VEB1       -0.0543
     80 C34         2.2064    1.3193    1.1460 C.ar    1  VEB1       -0.0197
     81 H40         4.7457   -1.4913    0.3562 H       1  VEB1        0.0622
     82 H41         1.5247    2.1338    1.3670 H       1  VEB1        0.0654
     83 C35         2.7637   -0.7344    0.0432 C.ar    1  VEB1       -0.0197
     84 C36         1.8225    0.2486    0.3439 C.ar    1  VEB1        0.1206
     85 C37         6.9473    1.1418    0.0371 C.ar    1  VEB1       -0.0543
     86 H42        11.4875    2.4673   -1.0248 H       1  VEB1        0.0724
     87 C38         9.2782    0.7063   -0.4585 C.ar    1  VEB1        0.1206
     88 H43         2.4872   -1.5631   -0.6042 H       1  VEB1        0.0654
     89 O6          0.5784    0.0667   -0.2004 O.3     1  VEB1       -0.4893
     90 H44         6.0202    1.6311   -0.2546 H       1  VEB1        0.0622
     91 H45        11.5796    1.2777    0.2950 H       1  VEB1        0.0724
     92 C39        11.5104    1.3967   -0.7927 C.3     1  VEB1        0.1186
     93 C40         8.0597    1.2828   -0.8027 C.ar    1  VEB1       -0.0197
     94 O7         10.3083    0.8293   -1.3459 O.3     1  VEB1       -0.4893
     95 O8         12.9546   -0.5482   -0.8569 O.3     1  VEB1       -0.3850
     96 H46        14.3194    1.6582   -0.3479 H       1  VEB1        0.0725
     97 C41        12.7075    0.7267   -1.4768 C.3     1  VEB1        0.1230
     98 H47         7.9706    1.8489   -1.7256 H       1  VEB1        0.0654
     99 H48        13.7482   -0.9141   -1.2898 H       1  VEB1        0.2101
    100 C42        13.9823    1.5706   -1.3864 C.3     1  VEB1        0.1215
    101 H49        12.4741    0.5166   -2.5270 H       1  VEB1        0.0662
    102 H50        13.8107    2.5634   -1.8162 H       1  VEB1        0.0725
    103 O9         15.0070    0.8666   -2.1224 O.3     1  VEB1       -0.4617
    104 O10        16.1978    2.8060   -2.2960 O.2     1  VEB1       -0.2506
    105 C43        16.0761    1.6096   -2.5282 C.2     1  VEB1        0.3097
    106 C44        17.4602   -0.4502   -2.3806 C.3     1  VEB1       -0.0525
    107 H52        16.5517   -1.0411   -2.2751 H       1  VEB1        0.0237
    108 C45        17.0856    0.7468   -3.3302 C.3     1  VEB1        0.0508
    109 H54        17.6338   -0.0539   -1.3685 H       1  VEB1        0.0237
    110 C46        18.3227    1.6432   -3.5564 C.3     1  VEB1       -0.0525
    111 H55        18.7591    1.9596   -2.6017 H       1  VEB1        0.0237
    112 H56        18.0670    2.5690   -4.0842 H       1  VEB1        0.0237
    113 H57        19.0998    1.1333   -4.1334 H       1  VEB1        0.0237
    114 H58        -0.3825    0.7229    1.5340 H       1  VEB1        0.0724
    115 H59        -0.4999    1.7972    0.0963 H       1  VEB1        0.0724
    116 C         -21.6291   -1.1593    0.5889 C.ar    1  CRO01      -0.0476
    117 C1        -22.9016   -1.7613    0.6325 C.ar    1  CRO01      -0.0586
    118 C2        -23.0427   -3.1418    0.7804 C.ar    1  CRO01      -0.0615
    119 C3        -21.9130   -3.9455    0.8882 C.ar    1  CRO01      -0.0617
    120 C4        -20.6458   -3.3683    0.8409 C.ar    1  CRO01      -0.0615
    121 C5        -20.5046   -1.9857    0.6882 C.ar    1  CRO01      -0.0586
    122 C6        -21.5310    0.3569    0.4486 C.3     1  CRO01      -0.0305
    123 C7        -20.5814    0.7797   -0.6849 C.3     1  CRO01      -0.0613
    124 H1        -22.5188    0.6422    0.0531 H       1  CRO01       0.0311
    125 H2        -19.5495    0.4575   -0.5249 H       1  CRO01       0.0233
    126 H3        -20.5798    1.8660   -0.8166 H       1  CRO01       0.0233
    127 H4        -20.9050    0.3356   -1.6341 H       1  CRO01       0.0233
    128 H5        -19.5050   -1.5690    0.6402 H       1  CRO01       0.0620
    129 H6        -22.0196   -5.0207    1.0050 H       1  CRO01       0.0618
    130 H7        -19.7634   -3.9987    0.9197 H       1  CRO01       0.0618
    131 H8        -23.8018   -1.1541    0.5549 H       1  CRO01       0.0620
    132 H9        -24.0340   -3.5866    0.8119 H       1  CRO01       0.0618
    133 C          18.5286   -2.8546   -2.4365 C.ar    1  CRO11      -0.0476
    134 C1         17.3911   -3.4303   -1.8475 C.ar    1  CRO11      -0.0586
    135 C2         17.3144   -4.8048   -1.5917 C.ar    1  CRO11      -0.0615
    136 C3         18.3820   -5.6375   -1.9013 C.ar    1  CRO11      -0.0617
    137 C4         19.5203   -5.0983   -2.4874 C.ar    1  CRO11      -0.0615
    138 C5         19.5847   -3.7287   -2.7660 C.ar    1  CRO11      -0.0586
    139 C6         18.6743   -1.3540   -2.7532 C.3     1  CRO11      -0.0305
    140 C7         19.9507   -0.8294   -2.0599 C.3     1  CRO11      -0.0613
    141 H1         18.8336   -1.2832   -3.8347 H       1  CRO11       0.0311
    142 H2         19.9278   -1.0302   -0.9829 H       1  CRO11       0.0233
    143 H3         20.0881    0.2445   -2.1931 H       1  CRO11       0.0233
    144 H4         20.8530   -1.3004   -2.4648 H       1  CRO11       0.0233
    145 H5         20.4856   -3.3501   -3.2435 H       1  CRO11       0.0620
    146 H6         18.3238   -6.7012   -1.6897 H       1  CRO11       0.0618
    147 H7         20.3610   -5.7420   -2.7315 H       1  CRO11       0.0618
    148 H8         16.5207   -2.8462   -1.5727 H       1  CRO11       0.0620
    149 H9         16.4125   -5.2191   -1.1479 H       1  CRO11       0.0618
    150 C          15.9483   -1.1013   -4.8603 C.ar    1  CRO21      -0.0476
    151 C1         14.7093   -1.5423   -4.3647 C.ar    1  CRO21      -0.0586
    152 C2         14.3162   -2.8767   -4.4858 C.ar    1  CRO21      -0.0615
    153 C3         15.1503   -3.7927   -5.1184 C.ar    1  CRO21      -0.0617
    154 C4         16.3725   -3.3724   -5.6343 C.ar    1  CRO21      -0.0615
    155 C5         16.7668   -2.0379   -5.5096 C.ar    1  CRO21      -0.0586
    156 C6         16.3492    0.3645   -4.6938 C.3     1  CRO21      -0.0305
    157 C7         17.0237    0.8957   -5.9748 C.3     1  CRO21      -0.0613
    158 H1         15.3911    0.9082   -4.7013 H       1  CRO21       0.0311
    159 H2         18.0408    0.5119   -6.0996 H       1  CRO21       0.0233
    160 H3         17.0658    1.9897   -5.9729 H       1  CRO21       0.0233
    161 H4         16.4511    0.6083   -6.8651 H       1  CRO21       0.0233
    162 H5         17.7314   -1.7514   -5.9199 H       1  CRO21       0.0620
    163 H6         14.8497   -4.8326   -5.2108 H       1  CRO21       0.0618
    164 H7         17.0271   -4.0864   -6.1273 H       1  CRO21       0.0618
    165 H8         14.0302   -0.8464   -3.8811 H       1  CRO21       0.0620
    166 H9         13.3573   -3.1994   -4.0884 H       1  CRO21       0.0618
@<TRIPOS>BOND
     1   112   110    1
     2   113   110    1
     3   110   111    1
     4   110   108    1
     5   101    97    1
     6   108   105    1
     7   108   106    1
     8    99    95    1
     9    98    93    1
    10   109   106    1
    11   103   105    1
    12   103   100    1
    13    95    97    1
    14    97   100    1
    15    97    92    1
    16   105   104    2
    17   106   107    1
    18    94    92    1
    19    94    87    1
    20   102   100    1
    21    38    33    1
    22    93    87   ar
    23    93    85   ar
    24   100    96    1
    25    88    83    1
    26    90    85    1
    27    92    86    1
    28    92    91    1
    29    87    78   ar
    30    89    84    1
    31    89    36    1
    32    23    18    1
    33    83    84   ar
    34    83    79   ar
    35    85    76   ar
    36    35    32    1
    37    33    36    1
    38    33    32    1
    39    33    37    1
    40    84    80   ar
    41    81    79    1
    42   115    36    1
    43    30    32    1
    44    30    13    1
    45    79    74   ar
    46    36   114    1
    47    59    58    1
    48    46    41    1
    49    32    34    1
    50    22    17    1
    51    39    37    1
    52    18    17   ar
    53    18    19   ar
    54    13    12   ar
    55    13    14   ar
    56    27    12    1
    57    61    58    1
    58    80    82    1
    59    80    75   ar
    60    28    14    1
    61    78    77    1
    62    78    71   ar
    63    76    71   ar
    64    76    70    1
    65    12    11   ar
    66    14    15   ar
    67    74    75   ar
    68    74    70    1
    69    17    16   ar
    70    58    52    1
    71    58    60    1
    72    31    19    1
    73    31    40    1
    74    75    72    1
    75    41    45    1
    76    41    40    1
    77    41    44    1
    78    19    20   ar
    79    71    69    1
    80    47    45    1
    81    11    26    1
    82    11    10   ar
    83    15    29    1
    84    15    10   ar
    85    48    44    1
    86    48    51    1
    87    52    51    1
    88    52    53    1
    89    70    64    1
    90    70    68    1
    91    66    64    1
    92    49    44    1
    93     5     2    1
    94    10     1    1
    95    40    42    1
    96    40    43    1
    97    44    50    1
    98    51    57    2
    99    16     1    1
   100    16    21   ar
   101    73    68    1
   102    64    63    1
   103    64    62    1
   104    55    53    1
   105    20    21   ar
   106    20    24    1
   107     1     2    1
   108     1     6    1
   109    53    54    1
   110    53    56    1
   111    68    67    1
   112    68    65    1
   113     2     3    1
   114     2     4    1
   115    21    25    1
   116     6     8    1
   117     6     7    1
   118     6     9    1
   119   124   122    1
   120   127   123    1
   121   131   117    1
   122   117   116   ar
   123   117   118   ar
   124   122   116    1
   125   122   123    1
   126   126   123    1
   127   132   118    1
   128   116   121   ar
   129   118   119   ar
   130   123   125    1
   131   119   129    1
   132   119   120   ar
   133   121   120   ar
   134   121   128    1
   135   120   130    1
   136   141   139    1
   137   144   140    1
   138   148   134    1
   139   134   133   ar
   140   134   135   ar
   141   139   133    1
   142   139   140    1
   143   143   140    1
   144   149   135    1
   145   133   138   ar
   146   135   136   ar
   147   140   142    1
   148   136   146    1
   149   136   137   ar
   150   138   137   ar
   151   138   145    1
   152   137   147    1
   153   158   156    1
   154   161   157    1
   155   165   151    1
   156   151   150   ar
   157   151   152   ar
   158   156   150    1
   159   156   157    1
   160   160   157    1
   161   166   152    1
   162   150   155   ar
   163   152   153   ar
   164   157   159    1
   165   153   163    1
   166   153   154   ar
   167   155   154   ar
   168   155   162    1
   169   154   164    1
   170   122    52    1
   171   139   106    1
   172   156   108    1
