@<TRIPOS>MOLECULE
*****
  150   155     1     0     0
SMALL
gas


@<TRIPOS>ATOM
      1 C           -7.1090     1.5480     2.5960 c3         1 VEB       0.014609
      2 C1          -7.3350     3.0820     2.7080 c3         1 VEB      -0.051690
      3 H           -6.5060     3.5830     3.2220 hc         1 VEB       0.024276
      4 H1          -8.2420     3.3090     3.2830 hc         1 VEB       0.024276
      5 H2          -7.4450     3.5540     1.7240 hc         1 VEB       0.024276
      6 C2          -6.7360     1.0690     4.0260 c3         1 VEB      -0.051690
      7 H3          -5.7800     1.4970     4.3530 hc         1 VEB       0.024276
      8 H4          -6.6320    -0.0220     4.0790 hc         1 VEB       0.024276
      9 H5          -7.4870     1.3710     4.7650 hc         1 VEB       0.024276
     10 C3          -5.8900     1.1760     1.7130 ca         1 VEB      -0.037779
     11 C4          -4.8700     2.1000     1.4180 ca         1 VEB      -0.055557
     12 C5          -3.6920     1.7130     0.7610 ca         1 VEB      -0.031490
     13 C6          -3.4980     0.3880     0.3870 ca         1 VEB       0.075038
     14 C7          -4.5200    -0.5320     0.6180 ca         1 VEB      -0.031490
     15 C8          -5.6950    -0.1480     1.2820 ca         1 VEB      -0.055557
     16 C9          -8.4540     0.9640     2.0900 ca         1 VEB      -0.037779
     17 C10         -8.9260     1.2750     0.7980 ca         1 VEB      -0.055557
     18 C11        -10.2020     0.8770     0.3710 ca         1 VEB      -0.031490
     19 C12        -11.0380     0.1710     1.2300 ca         1 VEB       0.075038
     20 C13        -10.5660    -0.2150     2.4800 ca         1 VEB      -0.031490
     21 C14         -9.2940     0.1860     2.9090 ca         1 VEB      -0.055557
     22 H6          -8.3060     1.8540     0.1150 ha         1 VEB       0.062694
     23 H7         -10.5460     1.1420    -0.6250 ha         1 VEB       0.065055
     24 H8         -11.1800    -0.8260     3.1360 ha         1 VEB       0.065055
     25 H9          -8.9940    -0.1150     3.9080 ha         1 VEB       0.062694
     26 H10         -4.9490     3.1410     1.7190 ha         1 VEB       0.062694
     27 H11         -2.9430     2.4740     0.5650 ha         1 VEB       0.065055
     28 H12         -4.3940    -1.5680     0.3130 ha         1 VEB       0.065055
     29 H13         -6.4470    -0.9090     1.4860 ha         1 VEB       0.062694
     30 O           -2.3670    -0.1010    -0.2170 os         1 VEB      -0.343351
     31 O1         -12.2910    -0.1770     0.7900 os         1 VEB      -0.343351
     32 C15         -1.1470     0.5960     0.0970 c3         1 VEB       0.081542
     33 C16          0.0440    -0.2750    -0.3390 c3         1 VEB       0.101650
     34 H14         -1.0920     0.7670     1.1800 h1         1 VEB       0.060081
     35 H15         -1.1200     1.5500    -0.4410 h1         1 VEB       0.060081
     36 C17          1.3830     0.4040     0.0070 c3         1 VEB       0.081542
     37 O2          -0.0360    -1.5350     0.3490 oh         1 VEB      -0.388276
     38 H16         -0.0130    -0.5000    -1.4090 h1         1 VEB       0.065017
     39 H17         -0.9350    -1.8740     0.1810 ho         1 VEB       0.210692
     40 C18        -13.3220     0.4030     1.6140 c3         1 VEB       0.081544
     41 C19        -14.7110    -0.1050     1.1810 c3         1 VEB       0.101764
     42 H18        -13.2730     1.4940     1.5020 h1         1 VEB       0.060081
     43 H19        -13.1700     0.1400     2.6670 h1         1 VEB       0.060081
     44 C20        -15.8050     0.7370     1.8510 c3         1 VEB       0.084607
     45 O3         -14.8610    -1.4730     1.5890 oh         1 VEB      -0.388274
     46 H20        -14.8140    -0.0850     0.0910 h1         1 VEB       0.065019
     47 H21        -15.7850    -1.7190     1.4110 ho         1 VEB       0.210692
     48 O4         -17.1210     0.3190     1.4190 os         1 VEB      -0.312742
     49 H22        -15.6480     1.7910     1.5930 h1         1 VEB       0.060196
     50 H23        -15.7590     0.6080     2.9390 h1         1 VEB       0.060196
     51 C21        -18.0930     1.2060     1.7750 c          1 VEB       0.267164
     52 C22        -19.5200     0.8010     1.3710 c3         1 VEB       0.057309
     53 C23        -20.1300     0.0840     2.5940 c3         1 VEB      -0.049867
     54 H24        -19.5870    -0.8370     2.8350 hc         1 VEB       0.024155
     55 H25        -21.1850    -0.1620     2.4310 hc         1 VEB       0.024155
     56 H26        -20.0790     0.7150     3.4900 hc         1 VEB       0.024155
     57 O5         -17.8550     2.2220     2.4240 o          1 VEB      -0.265976
     58 C24        -20.3090     2.1320     1.1960 c3         1 VEB      -0.049867
     59 H28        -19.8790     2.7490     0.4000 hc         1 VEB       0.024155
     60 H29        -20.3000     2.7350     2.1110 hc         1 VEB       0.024155
     61 H30        -21.3610     1.9440     0.9510 hc         1 VEB       0.024155
     62 H31          8.5080    -1.4090     3.2460 hc         1 VEB       0.024276
     63 H32          6.7580    -1.4380     3.1060 hc         1 VEB       0.024276
     64 C25          7.6850    -1.3640     2.5240 c3         1 VEB      -0.051690
     65 H33          7.1420     1.1210     3.4500 hc         1 VEB       0.024276
     66 H34          7.7540    -2.2620     1.8970 hc         1 VEB       0.024276
     67 H35          8.8830     1.0080     3.2110 hc         1 VEB       0.024276
     68 C26          7.9260     1.1030     2.6830 c3         1 VEB      -0.051690
     69 H36         10.2510    -1.2330     1.9580 ha         1 VEB       0.062694
     70 C27          7.7150    -0.0590     1.6760 c3         1 VEB       0.014609
     71 C28         10.1510    -0.6420     1.0520 ca         1 VEB      -0.055557
     72 H37          5.6360     1.8680     1.8470 ha         1 VEB       0.062694
     73 H38          7.9340     2.0790     2.1830 hc         1 VEB       0.024276
     74 C29          6.3400     0.0080     0.9570 ca         1 VEB      -0.037779
     75 C30          5.4000     1.0250     1.2030 ca         1 VEB      -0.055557
     76 C31          8.9350    -0.0080     0.7220 ca         1 VEB      -0.037779
     77 H39         12.1890    -1.0670     0.5080 ha         1 VEB       0.065055
     78 C32         11.2850    -0.5290     0.2370 ca         1 VEB      -0.031490
     79 C33          5.9490    -1.0200     0.0780 ca         1 VEB      -0.055557
     80 C34          4.1050     0.9790     0.6610 ca         1 VEB      -0.031490
     81 H40          6.6420    -1.8210    -0.1730 ha         1 VEB       0.062694
     82 H41          3.4230     1.7890     0.8980 ha         1 VEB       0.065055
     83 C35          4.6540    -1.0660    -0.4600 ca         1 VEB      -0.031490
     84 C36          3.7130    -0.0900    -0.1390 ca         1 VEB       0.075038
     85 C37          8.9110     0.7510    -0.4620 ca         1 VEB      -0.055557
     86 H42         13.4570     1.9560    -1.1900 h1         1 VEB       0.060081
     87 C38         11.2420     0.2490    -0.9140 ca         1 VEB       0.075038
     88 H43          4.3710    -1.8940    -1.1050 ha         1 VEB       0.065055
     89 O6           2.4590    -0.2770    -0.6590 os         1 VEB      -0.343351
     90 H44          8.0050     1.2700    -0.7680 ha         1 VEB       0.062694
     91 H45         13.5960     0.5580    -0.0990 h1         1 VEB       0.060081
     92 C39         13.5050     0.8620    -1.1480 c3         1 VEB       0.081544
     93 C40         10.0470     0.8630    -1.2790 ca         1 VEB      -0.031490
     94 O7          12.3050     0.3610    -1.7680 os         1 VEB      -0.343351
     95 O8          14.8930    -1.0500    -1.6640 oh         1 VEB      -0.388274
     96 H46         16.2750     0.7870    -0.4880 h1         1 VEB       0.060196
     97 C41         14.7260     0.3540    -1.9310 c3         1 VEB       0.101764
     98 H47          9.9940     1.4400    -2.1980 ha         1 VEB       0.065055
     99 H48         15.7610    -1.3130    -2.0190 ho         1 VEB       0.210692
    100 C42         16.0030     1.0900    -1.5060 c3         1 VEB       0.084607
    101 H49         14.5610     0.4510    -3.0100 h1         1 VEB       0.065019
    102 H50         15.8520     2.1740    -1.5360 h1         1 VEB       0.060196
    103 O9          17.0590     0.7850    -2.4470 os         1 VEB      -0.312742
    104 H51         20.5040    -0.8520    -1.8940 hc         1 VEB       0.024155
    105 O10         18.5710     0.8660    -0.7390 o          1 VEB      -0.265976
    106 C43         18.3200     0.7400    -1.9340 c          1 VEB       0.267164
    107 C44         20.6880     0.1140    -2.3760 c3         1 VEB      -0.049867
    108 H52         21.0630     0.7800    -1.5890 hc         1 VEB       0.024155
    109 C45         19.4080     0.6830    -3.0240 c3         1 VEB       0.057309
    110 H54         21.4990    -0.0050    -3.1010 hc         1 VEB       0.024155
    111 C46         19.6900     2.1600    -3.3840 c3         1 VEB      -0.049867
    112 H55         19.8450     2.7680    -2.4840 hc         1 VEB       0.024155
    113 H56         18.8490     2.6030    -3.9290 hc         1 VEB       0.024155
    114 H57         20.5910     2.2640    -3.9980 hc         1 VEB       0.024155
    115 H58          1.5240     0.3650     1.0950 h1         1 VEB       0.060081
    116 H59          1.3740     1.4450    -0.3360 h1         1 VEB       0.060081
    117 C47        -19.7920    -1.5260     0.1720 ca         1 CRO      -0.044120
    118 C49        -21.0670    -2.1240     0.2110 ca         1 CRO      -0.058741
    119 C51        -21.2130    -3.5040     0.3590 ca         1 CRO      -0.061987
    120 C53        -20.0860    -4.3110     0.4710 ca         1 CRO      -0.062252
    121 C55        -18.8170    -3.7380     0.4290 ca         1 CRO      -0.061987
    122 C57        -18.6710    -2.3560     0.2770 ca         1 CRO      -0.058741
    123 C59        -19.6880    -0.0100     0.0320 c3         1 CRO      -0.004518
    124 C61        -18.7390     0.4090    -1.1030 c3         1 CRO      -0.057373
    125 H27        -20.6750     0.2790    -0.3620 hc         1 CRO       0.036042
    126 H60        -17.7090     0.0800    -0.9460 hc         1 CRO       0.023692
    127 H62        -18.7310     1.4950    -1.2330 hc         1 CRO       0.023692
    128 H64        -19.0670    -0.0320    -2.0520 hc         1 CRO       0.023692
    129 H66        -17.6700    -1.9420     0.2330 ha         1 CRO       0.062576
    130 H68        -20.1970    -5.3860     0.5880 ha         1 CRO       0.062273
    131 H70        -17.9370    -4.3710     0.5120 ha         1 CRO       0.062283
    132 H72        -21.9650    -1.5140     0.1300 ha         1 CRO       0.062576
    133 H74        -22.2060    -3.9450     0.3860 ha         1 CRO       0.062283
    134 C48         18.6340    -1.5860    -4.0770 ca         1 CRO      -0.044120
    135 C50         17.2960    -2.0100    -4.1120 ca         1 CRO      -0.058741
    136 C52         16.9610    -3.3530    -3.9240 ca         1 CRO      -0.061987
    137 C54         17.9610    -4.2980    -3.7160 ca         1 CRO      -0.062252
    138 C56         19.2950    -3.9010    -3.7020 ca         1 CRO      -0.061987
    139 C58         19.6280    -2.5580    -3.8860 ca         1 CRO      -0.058741
    140 C60         18.9630    -0.1120    -4.3060 c3         1 CRO      -0.004518
    141 C62         19.9350     0.0170    -5.4970 c3         1 CRO      -0.057373
    142 H53         18.0380     0.3600    -4.6680 hc         1 CRO       0.036042
    143 H61         20.9430    -0.3360    -5.2580 hc         1 CRO       0.023692
    144 H63         20.0140     1.0550    -5.8350 hc         1 CRO       0.023692
    145 H65         19.5790    -0.5670    -6.3540 hc         1 CRO       0.023692
    146 H67         20.6810    -2.2870    -3.8880 ha         1 CRO       0.062576
    147 H69         17.7020    -5.3440    -3.5760 ha         1 CRO       0.062273
    148 H71         20.0790    -4.6390    -3.5550 ha         1 CRO       0.062283
    149 H73         16.4960    -1.2960    -4.3010 ha         1 CRO       0.062576
    150 H75         15.9190    -3.6620    -3.9500 ha         1 CRO       0.062283
@<TRIPOS>BOND
     1   113   111 1   
     2   114   111 1   
     3   111   112 1   
     4   111   109 1   
     5   101    97 1   
     6   109   106 1   
     7   109   107 1   
     8    99    95 1   
     9    98    93 1   
    10   110   107 1   
    11   103   106 1   
    12   103   100 1   
    13    95    97 1   
    14    97   100 1   
    15    97    92 1   
    16   106   105 2   
    17   107   108 1   
    18   107   104 1   
    19    94    92 1   
    20    94    87 1   
    21   102   100 1   
    22    38    33 1   
    23    93    87 ar  
    24    93    85 ar  
    25   100    96 1   
    26    88    83 1   
    27    90    85 1   
    28    92    86 1   
    29    92    91 1   
    30    87    78 ar  
    31    89    84 1   
    32    89    36 1   
    33    23    18 1   
    34    83    84 ar  
    35    83    79 ar  
    36    85    76 ar  
    37    35    32 1   
    38    33    36 1   
    39    33    32 1   
    40    33    37 1   
    41    84    80 ar  
    42    81    79 1   
    43   116    36 1   
    44    30    32 1   
    45    30    13 1   
    46    79    74 ar  
    47    36   115 1   
    48    59    58 1   
    49    46    41 1   
    50    32    34 1   
    51    22    17 1   
    52    39    37 1   
    53    18    17 ar  
    54    18    19 ar  
    55    13    12 ar  
    56    13    14 ar  
    57    27    12 1   
    58    61    58 1   
    59    80    82 1   
    60    80    75 ar  
    61    28    14 1   
    62    78    77 1   
    63    78    71 ar  
    64    76    71 ar  
    65    76    70 1   
    66    12    11 ar  
    67    14    15 ar  
    68    74    75 ar  
    69    74    70 1   
    70    17    16 ar  
    71    58    52 1   
    72    58    60 1   
    73    31    19 1   
    74    31    40 1   
    75    75    72 1   
    76    41    45 1   
    77    41    40 1   
    78    41    44 1   
    79    19    20 ar  
    80    71    69 1   
    81    47    45 1   
    82    11    26 1   
    83    11    10 ar  
    84    15    29 1   
    85    15    10 ar  
    86    48    44 1   
    87    48    51 1   
    88    52    51 1   
    89    52    53 1   
    90    70    64 1   
    91    70    68 1   
    92    66    64 1   
    93    49    44 1   
    94     5     2 1   
    95    10     1 1   
    96    40    42 1   
    97    40    43 1   
    98    44    50 1   
    99    51    57 2   
   100    16     1 1   
   101    16    21 ar  
   102    73    68 1   
   103    64    63 1   
   104    64    62 1   
   105    55    53 1   
   106    20    21 ar  
   107    20    24 1   
   108     1     2 1   
   109     1     6 1   
   110    53    54 1   
   111    53    56 1   
   112    68    67 1   
   113    68    65 1   
   114     2     3 1   
   115     2     4 1   
   116    21    25 1   
   117     6     8 1   
   118     6     7 1   
   119     6     9 1   
   120   125   123 1   
   121   128   124 1   
   122   132   118 1   
   123   118   117 ar  
   124   118   119 ar  
   125   123   117 1   
   126   123   124 1   
   127   127   124 1   
   128   133   119 1   
   129   117   122 ar  
   130   119   120 ar  
   131   124   126 1   
   132   120   130 1   
   133   120   121 ar  
   134   122   121 ar  
   135   122   129 1   
   136   121   131 1   
   137   142   140 1   
   138   145   141 1   
   139   149   135 1   
   140   135   134 ar  
   141   135   136 ar  
   142   140   134 1   
   143   140   141 1   
   144   144   141 1   
   145   150   136 1   
   146   134   139 ar  
   147   136   137 ar  
   148   141   143 1   
   149   137   147 1   
   150   137   138 ar  
   151   139   138 ar  
   152   139   146 1   
   153   138   148 1   
   154   123    52 1   
   155   140   109 1   
@<TRIPOS>SUBSTRUCTURE
     1 VEB         1 TEMP              0 ****  ****    0 ROOT
