@<TRIPOS>MOLECULE
*****
  166   172     1     0     0
SMALL
gas


@<TRIPOS>ATOM
      1 C           -5.0860     1.9610     2.5760 c3         1 VEB       0.014613
      2 C1          -5.2870     3.4960     2.7110 c3         1 VEB      -0.051690
      3 H           -4.4510     3.9740     3.2350 hc         1 VEB       0.024275
      4 H1          -6.1910     3.7290     3.2870 hc         1 VEB       0.024275
      5 H2          -5.3880     3.9820     1.7340 hc         1 VEB       0.024275
      6 C2          -4.7390     1.4450     4.0000 c3         1 VEB      -0.051690
      7 H3          -3.7630     1.8200     4.3340 hc         1 VEB       0.024275
      8 H4          -4.6920     0.3490     4.0370 hc         1 VEB       0.024275
      9 H5          -5.4730     1.7740     4.7450 hc         1 VEB       0.024275
     10 C3          -3.8590     1.5830     1.7050 ca         1 VEB      -0.037775
     11 C4          -2.8300     2.5020     1.4220 ca         1 VEB      -0.055555
     12 C5          -1.6420     2.1090     0.7860 ca         1 VEB      -0.031489
     13 C6          -1.4460     0.7820     0.4170 ca         1 VEB       0.075048
     14 C7          -2.4770    -0.1320     0.6330 ca         1 VEB      -0.031489
     15 C8          -3.6620     0.2580     1.2780 ca         1 VEB      -0.055555
     16 C9          -6.4390     1.4180     2.0470 ca         1 VEB      -0.037775
     17 C10         -6.8440     1.6650     0.7210 ca         1 VEB      -0.055555
     18 C11         -8.1230     1.3000     0.2680 ca         1 VEB      -0.031489
     19 C12         -9.0390     0.6990     1.1290 ca         1 VEB       0.075048
     20 C13         -8.6390     0.3970     2.4270 ca         1 VEB      -0.031489
     21 C14         -7.3610     0.7570     2.8800 ca         1 VEB      -0.055555
     22 H6          -6.1700     2.1670     0.0280 ha         1 VEB       0.062690
     23 H7          -8.4080     1.5100    -0.7600 ha         1 VEB       0.065049
     24 H8          -9.2940    -0.1310     3.1120 ha         1 VEB       0.065049
     25 H9          -7.1200     0.5180     3.9120 ha         1 VEB       0.062690
     26 H10         -2.9090     3.5450     1.7190 ha         1 VEB       0.062690
     27 H11         -0.8870     2.8670     0.6010 ha         1 VEB       0.065049
     28 H12         -2.3510    -1.1690     0.3320 ha         1 VEB       0.065049
     29 H13         -4.4210    -0.4990     1.4710 ha         1 VEB       0.062690
     30 O           -0.3070     0.2870    -0.1660 os         1 VEB      -0.343341
     31 O1         -10.2720     0.3890     0.6120 os         1 VEB      -0.343341
     32 C15          0.9110     0.9900     0.1480 c3         1 VEB       0.081548
     33 C16          2.1080     0.1210    -0.2810 c3         1 VEB       0.101658
     34 H14          0.9630     1.1660     1.2300 h1         1 VEB       0.060074
     35 H15          0.9370     1.9410    -0.3950 h1         1 VEB       0.060074
     36 C17          3.4460     0.8030     0.0600 c3         1 VEB       0.081548
     37 O2           2.0300    -1.1350     0.4150 oh         1 VEB      -0.388268
     38 H16          2.0520    -0.1120    -1.3500 h1         1 VEB       0.065008
     39 H17          1.1330    -1.4800     0.2460 ho         1 VEB       0.210686
     40 C18        -11.3740     0.6660     1.4960 c3         1 VEB       0.081550
     41 C19        -12.7090     0.2840     0.8250 c3         1 VEB       0.101772
     42 H18        -11.3670     1.7390     1.7290 h1         1 VEB       0.060074
     43 H19        -11.2800     0.0850     2.4190 h1         1 VEB       0.060074
     44 C20        -13.8880     0.8700     1.6130 c3         1 VEB       0.084611
     45 O3         -12.8330    -1.1470     0.8110 oh         1 VEB      -0.388266
     46 H20        -12.7340     0.6140    -0.2190 h1         1 VEB       0.065010
     47 H21        -13.7420    -1.3510     0.5300 ho         1 VEB       0.210686
     48 O4         -15.1410     0.5460     0.9650 os         1 VEB      -0.312729
     49 H22        -13.7920     1.9600     1.6700 h1         1 VEB       0.060189
     50 H23        -13.8980     0.4410     2.6230 h1         1 VEB       0.060189
     51 C21        -16.2230     1.0230     1.6400 c          1 VEB       0.267479
     52 C22        -17.5750     0.7750     0.9560 c3         1 VEB       0.060684
     53 C23        -18.4030    -0.3090     1.7500 c3         1 VEB      -0.031185
     54 H25        -19.3960    -0.3190     1.2850 hc         1 VEB       0.028391
     55 H26        -18.5850     0.0700     2.7680 hc         1 VEB       0.028391
     56 O5         -16.1270     1.5870     2.7280 o          1 VEB      -0.265950
     57 C24        -18.3600     2.1170     1.2110 c3         1 VEB      -0.049575
     58 H28        -17.8300     2.9840     0.8040 hc         1 VEB       0.024164
     59 H29        -18.4990     2.3110     2.2820 hc         1 VEB       0.024164
     60 H30        -19.3610     2.0880     0.7630 hc         1 VEB       0.024164
     61 H31         10.6040    -1.0060     3.2410 hc         1 VEB       0.024275
     62 H32          8.8540    -1.0420     3.1060 hc         1 VEB       0.024275
     63 C25          9.7790    -0.9600     2.5210 c3         1 VEB      -0.051690
     64 H33          9.2320     1.5200     3.4630 hc         1 VEB       0.024275
     65 H34          9.8510    -1.8530     1.8890 hc         1 VEB       0.024275
     66 H35         10.9720     1.4130     3.2180 hc         1 VEB       0.024275
     67 C26         10.0130     1.5080     2.6940 c3         1 VEB      -0.051690
     68 H36         12.3550    -0.7730     1.9830 ha         1 VEB       0.062690
     69 C27          9.8010     0.3510     1.6820 c3         1 VEB       0.014613
     70 C28         12.2460    -0.2030     1.0640 ca         1 VEB      -0.055555
     71 H37          7.7180     2.2720     1.8740 ha         1 VEB       0.062690
     72 H38         10.0180     2.4860     2.1980 hc         1 VEB       0.024275
     73 C29          8.4210     0.4180     0.9710 ca         1 VEB      -0.037775
     74 C30          7.4780     1.4300     1.2290 ca         1 VEB      -0.055555
     75 C31         11.0200     0.4060     0.7240 ca         1 VEB      -0.037775
     76 H39         14.2860    -0.6190     0.5250 ha         1 VEB       0.065049
     77 C32         13.3770    -0.0940     0.2440 ca         1 VEB      -0.031489
     78 C33          8.0240    -0.6090     0.0930 ca         1 VEB      -0.055555
     79 C34          6.1770     1.3810     0.7010 ca         1 VEB      -0.031489
     80 H40          8.7170    -1.4070    -0.1670 ha         1 VEB       0.062690
     81 H41          5.4940     2.1860     0.9480 ha         1 VEB       0.065049
     82 C35          6.7240    -0.6580    -0.4310 ca         1 VEB      -0.031489
     83 C36          5.7800     0.3130    -0.0980 ca         1 VEB       0.075048
     84 C37         10.9840     1.1420    -0.4740 ca         1 VEB      -0.055555
     85 H42         15.5690     2.3300    -1.2510 h1         1 VEB       0.060074
     86 C38         13.3210     0.6550    -0.9250 ca         1 VEB       0.075048
     87 H43          6.4370    -1.4860    -1.0760 ha         1 VEB       0.065049
     88 O6           4.5220     0.1200    -0.6070 os         1 VEB      -0.343341
     89 H44         10.0710     1.6440    -0.7890 ha         1 VEB       0.062690
     90 H45         15.7030     0.9390    -0.1500 h1         1 VEB       0.060074
     91 C39         15.5950     1.2350    -1.2000 c3         1 VEB       0.081550
     92 C40         12.1170     1.2490    -1.2960 ca         1 VEB      -0.031489
     93 O7          14.3740     0.7550    -1.7920 os         1 VEB      -0.343341
     94 O8          16.9530    -0.7000    -1.7050 oh         1 VEB      -0.388266
     95 H46         18.3940     1.1750    -0.6290 h1         1 VEB       0.060189
     96 C41         16.7900     0.6960    -2.0060 c3         1 VEB       0.101772
     97 H47         12.0550     1.8060    -2.2270 ha         1 VEB       0.065049
     98 H48         17.8110    -0.9830    -2.0680 ho         1 VEB       0.210686
     99 C42         18.0840     1.4380    -1.6460 c3         1 VEB       0.084611
    100 H49         16.5910     0.7640    -3.0810 h1         1 VEB       0.065010
    101 H50         17.9340     2.5210    -1.7010 h1         1 VEB       0.060189
    102 O9          19.1030     1.1170    -2.6240 os         1 VEB      -0.312737
    103 H51         22.4950    -0.8480    -2.2580 hc         1 VEB       0.024153
    104 O10         20.6040     0.6820    -0.9590 o          1 VEB      -0.265963
    105 C43         20.3420     0.8030    -2.1470 c          1 VEB       0.267174
    106 C44         22.6860     0.1380    -2.6950 c3         1 VEB      -0.049870
    107 H52         23.1010     0.7530    -1.8860 hc         1 VEB       0.024153
    108 C45         21.4000     0.7720    -3.2690 c3         1 VEB       0.057307
    109 H54         23.4690     0.0380    -3.4510 hc         1 VEB       0.024153
    110 C46         21.7190     2.2530    -3.5760 c3         1 VEB      -0.049870
    111 H55         21.9190     2.8160    -2.6560 hc         1 VEB       0.024153
    112 H56         20.8780     2.7450    -4.0780 hc         1 VEB       0.024153
    113 H57         22.6040     2.3530    -4.2140 hc         1 VEB       0.024153
    114 H58          3.5910     0.7670     1.1470 h1         1 VEB       0.060074
    115 H59          3.4360     1.8420    -0.2860 h1         1 VEB       0.060074
    116 C47        -17.4930    -0.8000    -1.1960 ca         1 CRO      -0.044104
    117 C50        -18.6780    -1.4300    -1.6200 ca         1 CRO      -0.058737
    118 C53        -18.6640    -2.7320    -2.1250 ca         1 CRO      -0.061983
    119 C56        -17.4610    -3.4210    -2.2300 ca         1 CRO      -0.062248
    120 C59        -16.2730    -2.8010    -1.8470 ca         1 CRO      -0.061983
    121 C62        -16.2870    -1.4980    -1.3420 ca         1 CRO      -0.058737
    122 C65        -17.5700     0.6060    -0.6210 c3         1 CRO      -0.004225
    123 C68        -16.6220     1.5560    -1.3840 c3         1 CRO      -0.057363
    124 H24        -18.5640     0.9570    -0.9400 hc         1 CRO       0.036050
    125 H60        -15.5690     1.2770    -1.2960 hc         1 CRO       0.023692
    126 H63        -16.7240     2.5910    -1.0490 hc         1 CRO       0.023692
    127 H66        -16.8580     1.5410    -2.4550 hc         1 CRO       0.023692
    128 H69        -15.3440    -1.0410    -1.0640 ha         1 CRO       0.062571
    129 H72        -17.4490    -4.4380    -2.6130 ha         1 CRO       0.062269
    130 H75        -15.3320    -3.3380    -1.9400 ha         1 CRO       0.062279
    131 H78        -19.6340    -0.9150    -1.5470 ha         1 CRO       0.062571
    132 H81        -19.5930    -3.2080    -2.4280 ha         1 CRO       0.062279
    133 C48        -19.0210    -2.7580     2.2560 ca         1 CRO      -0.045151
    134 C51        -20.1660    -2.8170     1.4390 ca         1 CRO      -0.058773
    135 C54        -21.1900    -3.7410     1.6680 ca         1 CRO      -0.061984
    136 C57        -21.0860    -4.6510     2.7120 ca         1 CRO      -0.062248
    137 C60        -19.9610    -4.6280     3.5270 ca         1 CRO      -0.061984
    138 C63        -18.9440    -3.6920     3.3050 ca         1 CRO      -0.058773
    139 C66        -17.8820    -1.7710     1.9210 c3         1 CRO      -0.017979
    140 C69        -16.7270    -1.8380     2.9340 c3         1 CRO      -0.058380
    141 H27        -17.4730    -2.1380     0.9810 hc         1 CRO       0.034972
    142 H61        -17.0470    -1.5120     3.9300 hc         1 CRO       0.023657
    143 H64        -15.8790    -1.2250     2.6360 hc         1 CRO       0.023657
    144 H67        -16.3290    -2.8550     3.0160 hc         1 CRO       0.023657
    145 H70        -18.0860    -3.7320     3.9700 ha         1 CRO       0.062571
    146 H73        -21.8730    -5.3800     2.8840 ha         1 CRO       0.062269
    147 H76        -19.8640    -5.3480     4.3370 ha         1 CRO       0.062279
    148 H79        -20.2770    -2.1470     0.5920 ha         1 CRO       0.062571
    149 H82        -22.0620    -3.7540     1.0200 ha         1 CRO       0.062279
    150 C49         20.5070    -1.4250    -4.3590 ca         1 CRO      -0.044115
    151 C52         19.1540    -1.7940    -4.3000 ca         1 CRO      -0.058737
    152 C55         18.7790    -3.1280    -4.1270 ca         1 CRO      -0.061983
    153 C58         19.7520    -4.1180    -4.0270 ca         1 CRO      -0.062248
    154 C61         21.0990    -3.7750    -4.1040 ca         1 CRO      -0.061983
    155 C64         21.4730    -2.4400    -4.2730 ca         1 CRO      -0.058737
    156 C67         20.8800     0.0420    -4.5600 c3         1 CRO      -0.004518
    157 C70         21.8100     0.1830    -5.7820 c3         1 CRO      -0.057374
    158 H53         19.9580     0.5550    -4.8700 hc         1 CRO       0.036039
    159 H62         22.8140    -0.2110    -5.5960 hc         1 CRO       0.023691
    160 H65         21.9120     1.2300    -6.0840 hc         1 CRO       0.023691
    161 H68         21.4020    -0.3570    -6.6440 hc         1 CRO       0.023691
    162 H71         22.5330    -2.2090    -4.3410 ha         1 CRO       0.062571
    163 H74         19.4620    -5.1570    -3.8970 ha         1 CRO       0.062269
    164 H77         21.8610    -4.5480    -4.0370 ha         1 CRO       0.062279
    165 H80         18.3720    -1.0440    -4.4030 ha         1 CRO       0.062571
    166 H83         17.7260    -3.3950    -4.0800 ha         1 CRO       0.062279
@<TRIPOS>BOND
     1   112   110 1   
     2   113   110 1   
     3   110   111 1   
     4   110   108 1   
     5   100    96 1   
     6   108   105 1   
     7   108   106 1   
     8    98    94 1   
     9    97    92 1   
    10   109   106 1   
    11   102   105 1   
    12   102    99 1   
    13    94    96 1   
    14    96    99 1   
    15    96    91 1   
    16   105   104 2   
    17   106   107 1   
    18   106   103 1   
    19    93    91 1   
    20    93    86 1   
    21   101    99 1   
    22    38    33 1   
    23    92    86 ar  
    24    92    84 ar  
    25    99    95 1   
    26    87    82 1   
    27    89    84 1   
    28    91    85 1   
    29    91    90 1   
    30    86    77 ar  
    31    88    83 1   
    32    88    36 1   
    33    23    18 1   
    34    82    83 ar  
    35    82    78 ar  
    36    84    75 ar  
    37    35    32 1   
    38    33    36 1   
    39    33    32 1   
    40    33    37 1   
    41    83    79 ar  
    42    80    78 1   
    43   115    36 1   
    44    30    32 1   
    45    30    13 1   
    46    78    73 ar  
    47    36   114 1   
    48    58    57 1   
    49    46    41 1   
    50    32    34 1   
    51    22    17 1   
    52    39    37 1   
    53    18    17 ar  
    54    18    19 ar  
    55    13    12 ar  
    56    13    14 ar  
    57    27    12 1   
    58    60    57 1   
    59    79    81 1   
    60    79    74 ar  
    61    28    14 1   
    62    77    76 1   
    63    77    70 ar  
    64    75    70 ar  
    65    75    69 1   
    66    12    11 ar  
    67    14    15 ar  
    68    73    74 ar  
    69    73    69 1   
    70    17    16 ar  
    71    57    52 1   
    72    57    59 1   
    73    31    19 1   
    74    31    40 1   
    75    74    71 1   
    76    41    45 1   
    77    41    40 1   
    78    41    44 1   
    79    19    20 ar  
    80    70    68 1   
    81    47    45 1   
    82    11    26 1   
    83    11    10 ar  
    84    15    29 1   
    85    15    10 ar  
    86    48    44 1   
    87    48    51 1   
    88    52    51 1   
    89    52    53 1   
    90    69    63 1   
    91    69    67 1   
    92    65    63 1   
    93    49    44 1   
    94     5     2 1   
    95    10     1 1   
    96    40    42 1   
    97    40    43 1   
    98    44    50 1   
    99    51    56 2   
   100    16     1 1   
   101    16    21 ar  
   102    72    67 1   
   103    63    62 1   
   104    63    61 1   
   105    54    53 1   
   106    20    21 ar  
   107    20    24 1   
   108     1     2 1   
   109     1     6 1   
   110    53    55 1   
   111    67    66 1   
   112    67    64 1   
   113     2     3 1   
   114     2     4 1   
   115    21    25 1   
   116     6     8 1   
   117     6     7 1   
   118     6     9 1   
   119   124   122 1   
   120   127   123 1   
   121   131   117 1   
   122   117   116 ar  
   123   117   118 ar  
   124   122   116 1   
   125   122   123 1   
   126   126   123 1   
   127   132   118 1   
   128   116   121 ar  
   129   118   119 ar  
   130   123   125 1   
   131   119   129 1   
   132   119   120 ar  
   133   121   120 ar  
   134   121   128 1   
   135   120   130 1   
   136   141   139 1   
   137   144   140 1   
   138   148   134 1   
   139   134   133 ar  
   140   134   135 ar  
   141   139   133 1   
   142   139   140 1   
   143   143   140 1   
   144   149   135 1   
   145   133   138 ar  
   146   135   136 ar  
   147   140   142 1   
   148   136   146 1   
   149   136   137 ar  
   150   138   137 ar  
   151   138   145 1   
   152   137   147 1   
   153   158   156 1   
   154   161   157 1   
   155   165   151 1   
   156   151   150 ar  
   157   151   152 ar  
   158   156   150 1   
   159   156   157 1   
   160   160   157 1   
   161   166   152 1   
   162   150   155 ar  
   163   152   153 ar  
   164   157   159 1   
   165   153   163 1   
   166   153   154 ar  
   167   155   154 ar  
   168   155   162 1   
   169   154   164 1   
   170   122    52 1   
   171   139    53 1   
   172   156   108 1   
@<TRIPOS>SUBSTRUCTURE
     1 VEB         1 TEMP              0 ****  ****    0 ROOT
