@<TRIPOS>MOLECULE
*****
  182   189     1     0     0
SMALL
gas


@<TRIPOS>ATOM
      1 C           -6.9260     2.3120     3.0170 c3         1 VEB       0.014613
      2 C1          -7.1260     3.8460     3.1560 c3         1 VEB      -0.051690
      3 H           -6.2870     4.3230     3.6770 hc         1 VEB       0.024275
      4 H1          -8.0270     4.0780     3.7380 hc         1 VEB       0.024275
      5 H2          -7.2330     4.3350     2.1810 hc         1 VEB       0.024275
      6 C2          -6.5750     1.7920     4.4390 c3         1 VEB      -0.051690
      7 H3          -5.5980     2.1670     4.7710 hc         1 VEB       0.024275
      8 H4          -6.5280     0.6960     4.4730 hc         1 VEB       0.024275
      9 H5          -7.3080     2.1190     5.1860 hc         1 VEB       0.024275
     10 C3          -5.7040     1.9340     2.1400 ca         1 VEB      -0.037775
     11 C4          -4.6810     2.8550     1.8430 ca         1 VEB      -0.055555
     12 C5          -3.4990     2.4620     1.1970 ca         1 VEB      -0.031489
     13 C6          -3.3040     1.1340     0.8330 ca         1 VEB       0.075048
     14 C7          -4.3290     0.2170     1.0620 ca         1 VEB      -0.031489
     15 C8          -5.5090     0.6070     1.7160 ca         1 VEB      -0.055555
     16 C9          -8.2800     1.7690     2.4890 ca         1 VEB      -0.037775
     17 C10         -8.6860     2.0200     1.1640 ca         1 VEB      -0.055555
     18 C11         -9.9620     1.6500     0.7090 ca         1 VEB      -0.031489
     19 C12        -10.8740     1.0400     1.5690 ca         1 VEB       0.075048
     20 C13        -10.4730     0.7350     2.8660 ca         1 VEB      -0.031489
     21 C14         -9.1980     1.1010     3.3200 ca         1 VEB      -0.055555
     22 H6          -8.0140     2.5260     0.4730 ha         1 VEB       0.062690
     23 H7         -10.2480     1.8610    -0.3180 ha         1 VEB       0.065049
     24 H8         -11.1260     0.2000     3.5470 ha         1 VEB       0.065049
     25 H9          -8.9550     0.8590     4.3510 ha         1 VEB       0.062690
     26 H10         -4.7600     3.8980     2.1360 ha         1 VEB       0.062690
     27 H11         -2.7480     3.2200     1.0010 ha         1 VEB       0.065049
     28 H12         -4.2040    -0.8210     0.7630 ha         1 VEB       0.065049
     29 H13         -6.2640    -0.1510     1.9190 ha         1 VEB       0.062690
     30 O           -2.1690     0.6400     0.2410 os         1 VEB      -0.343341
     31 O1         -12.1050     0.7220     1.0520 os         1 VEB      -0.343341
     32 C15         -0.9500     1.3350     0.5680 c3         1 VEB       0.081548
     33 C16          0.2450     0.4600     0.1510 c3         1 VEB       0.101658
     34 H14         -0.9070     1.5120     1.6500 h1         1 VEB       0.060074
     35 H15         -0.9130     2.2870     0.0250 h1         1 VEB       0.060074
     36 C17          1.5810     1.1340     0.5120 c3         1 VEB       0.081548
     37 O2           0.1510    -0.7980     0.8420 oh         1 VEB      -0.388268
     38 H16          0.2020     0.2310    -0.9200 h1         1 VEB       0.065008
     39 H17         -0.7470    -1.1360     0.6620 ho         1 VEB       0.210686
     40 C18        -13.2070     1.0100     1.9320 c3         1 VEB       0.081550
     41 C19        -14.5410     0.6230     1.2630 c3         1 VEB       0.101772
     42 H18        -13.2000     2.0850     2.1540 h1         1 VEB       0.060074
     43 H19        -13.1150     0.4380     2.8610 h1         1 VEB       0.060074
     44 C20        -15.7190     1.2170     2.0460 c3         1 VEB       0.084611
     45 O3         -14.6680    -0.8080     1.2630 oh         1 VEB      -0.388266
     46 H20        -14.5660     0.9430     0.2160 h1         1 VEB       0.065010
     47 H21        -15.5760    -1.0140     0.9800 ho         1 VEB       0.210686
     48 O4         -16.9730     0.8880     1.4010 os         1 VEB      -0.312729
     49 H22        -15.6220     2.3080     2.0910 h1         1 VEB       0.060189
     50 H23        -15.7300     0.7990     3.0600 h1         1 VEB       0.060189
     51 C21        -18.0530     1.3850     2.0650 c          1 VEB       0.267479
     52 C22        -19.4050     1.1280     1.3840 c3         1 VEB       0.060684
     53 C23        -20.2270     0.0440     2.1830 c3         1 VEB      -0.031185
     54 H25        -21.2190     0.0280     1.7170 hc         1 VEB       0.028391
     55 H26        -20.4130     0.4260     3.1980 hc         1 VEB       0.028391
     56 O5         -17.9550     1.9700     3.1410 o          1 VEB      -0.265950
     57 C24        -20.1960     2.4670     1.6330 c3         1 VEB      -0.049575
     58 H28        -19.6700     3.3350     1.2230 hc         1 VEB       0.024164
     59 H29        -20.3360     2.6650     2.7040 hc         1 VEB       0.024164
     60 H30        -21.1970     2.4310     1.1860 hc         1 VEB       0.024164
     61 H31          8.7920    -0.6960     3.7040 hc         1 VEB       0.024275
     62 H32          7.0420    -0.7820     3.5910 hc         1 VEB       0.024275
     63 C25          7.9560    -0.6550     2.9970 c3         1 VEB      -0.051690
     64 H33          7.3310     1.7880     4.0060 hc         1 VEB       0.024275
     65 H34          8.0480    -1.5280     2.3400 hc         1 VEB       0.024275
     66 H35          9.0750     1.7220     3.7610 hc         1 VEB       0.024275
     67 C26          8.1140     1.8120     3.2380 c3         1 VEB      -0.051690
     68 H36         10.5330    -0.3410     2.4390 ha         1 VEB       0.062690
     69 C27          7.9260     0.6780     2.1960 c3         1 VEB       0.014613
     70 C28         10.3840     0.2370     1.5310 ca         1 VEB      -0.055555
     71 H37          5.8300     2.5860     2.3890 ha         1 VEB       0.062690
     72 H38          8.1010     2.8030     2.7690 hc         1 VEB       0.024275
     73 C29          6.5380     0.7290     1.4970 ca         1 VEB      -0.037775
     74 C30          5.5950     1.7420     1.7460 ca         1 VEB      -0.055555
     75 C31          9.1270     0.8000     1.2240 ca         1 VEB      -0.037775
     76 H39         12.4300    -0.0830     0.9430 ha         1 VEB       0.065049
     77 C32         11.4920     0.4050     0.6890 ca         1 VEB      -0.031489
     78 C33          6.1500    -0.2990     0.6160 ca         1 VEB      -0.055555
     79 C34          4.3010     1.6950     1.2010 ca         1 VEB      -0.031489
     80 H40          6.8460    -1.0950     0.3580 ha         1 VEB       0.062690
     81 H41          3.6180     2.5040     1.4380 ha         1 VEB       0.065049
     82 C35          4.8560    -0.3470     0.0770 ca         1 VEB      -0.031489
     83 C36          3.9120     0.6280     0.3960 ca         1 VEB       0.075048
     84 C37          9.0350     1.5500     0.0380 ca         1 VEB      -0.055555
     85 H42         13.7000     2.8490    -1.0500 h1         1 VEB       0.060074
     86 C38         11.3770     1.1630    -0.4680 ca         1 VEB       0.075048
     87 H43          4.5760    -1.1720    -0.5730 ha         1 VEB       0.065049
     88 O6           2.6630     0.4420    -0.1350 os         1 VEB      -0.343341
     89 H44          8.0980     2.0210    -0.2520 ha         1 VEB       0.062690
     90 H45         13.7210     1.6480     0.2570 h1         1 VEB       0.060074
     91 C39         13.6430     1.7780    -0.8290 c3         1 VEB       0.081550
     92 C40         10.1430     1.7130    -0.8050 ca         1 VEB      -0.031489
     93 O7          12.3900     1.3190    -1.3690 os         1 VEB      -0.343341
     94 O8          14.9440    -0.2650    -0.9290 oh         1 VEB      -0.388266
     95 H46         16.4840     1.8230    -0.4550 h1         1 VEB       0.060189
     96 C41         14.7730     1.0260    -1.5420 c3         1 VEB       0.101772
     97 H47         10.0380     2.2780    -1.7270 ha         1 VEB       0.065049
     98 H48         15.7000    -0.6840    -1.3800 ho         1 VEB       0.210686
     99 C42         16.1070     1.7760    -1.4820 c3         1 VEB       0.084611
    100 H49         14.5010     0.8350    -2.5870 h1         1 VEB       0.065010
    101 H50         15.9930     2.7850    -1.8930 h1         1 VEB       0.060189
    102 O9          17.0520     1.0110    -2.2620 os         1 VEB      -0.312729
    103 O10         18.3560     2.8720    -2.5010 o          1 VEB      -0.265950
    104 C43         18.1410     1.6890    -2.7310 c          1 VEB       0.267479
    105 C44         19.3750    -0.4670    -2.6990 c3         1 VEB      -0.031185
    106 H52         18.4400    -1.0100    -2.5650 hc         1 VEB       0.028391
    107 C45         19.0290     0.7700    -3.6090 c3         1 VEB       0.060684
    108 H54         19.6150    -0.1030    -1.6890 hc         1 VEB       0.028391
    109 C46         20.3110     1.5730    -3.9160 c3         1 VEB      -0.049575
    110 H55         20.8370     1.8420    -2.9930 hc         1 VEB       0.024164
    111 H56         20.0930     2.5240    -4.4140 hc         1 VEB       0.024164
    112 H57         21.0020     1.0130    -4.5540 hc         1 VEB       0.024164
    113 H58          1.7070     1.1010     1.6010 h1         1 VEB       0.060074
    114 H59          1.5830     2.1720     0.1620 h1         1 VEB       0.060074
    115 C47        -19.3170    -0.4540    -0.7630 ca         1 CRO      -0.044104
    116 C51        -20.5020    -1.0880    -1.1820 ca         1 CRO      -0.058737
    117 C55        -20.4860    -2.3900    -1.6840 ca         1 CRO      -0.061983
    118 C59        -19.2810    -3.0760    -1.7920 ca         1 CRO      -0.062248
    119 C63        -18.0940    -2.4530    -1.4140 ca         1 CRO      -0.061983
    120 C67        -18.1100    -1.1480    -0.9110 ca         1 CRO      -0.058737
    121 C71        -19.3960     0.9540    -0.1920 c3         1 CRO      -0.004225
    122 C75        -18.4480     1.9030    -0.9550 c3         1 CRO      -0.057363
    123 H24        -20.3900     1.3040    -0.5150 hc         1 CRO       0.036050
    124 H60        -17.3940     1.6270    -0.8620 hc         1 CRO       0.023692
    125 H64        -18.5530     2.9390    -0.6240 hc         1 CRO       0.023692
    126 H68        -18.6790     1.8840    -2.0280 hc         1 CRO       0.023692
    127 H72        -17.1660    -0.6890    -0.6380 ha         1 CRO       0.062571
    128 H76        -19.2670    -4.0940    -2.1730 ha         1 CRO       0.062269
    129 H80        -17.1510    -2.9870    -1.5090 ha         1 CRO       0.062279
    130 H84        -21.4590    -0.5750    -1.1080 ha         1 CRO       0.062571
    131 H88        -21.4140    -2.8690    -1.9830 ha         1 CRO       0.062279
    132 C48        -20.8290    -2.4170     2.6770 ca         1 CRO      -0.045151
    133 C52        -21.9800    -2.4640     1.8680 ca         1 CRO      -0.058773
    134 C56        -22.9970    -3.4000     2.0840 ca         1 CRO      -0.061984
    135 C60        -22.8790    -4.3340     3.1040 ca         1 CRO      -0.062248
    136 C64        -21.7460    -4.3260     3.9090 ca         1 CRO      -0.061984
    137 C68        -20.7360    -3.3780     3.6990 ca         1 CRO      -0.058773
    138 C72        -19.6960    -1.4150     2.3610 c3         1 CRO      -0.017979
    139 C76        -18.5610    -1.4670     3.3970 c3         1 CRO      -0.058380
    140 H27        -19.2660    -1.7750     1.4280 hc         1 CRO       0.034972
    141 H61        -18.9110    -1.1680     4.3910 hc         1 CRO       0.023657
    142 H65        -17.7230    -0.8270     3.1300 hc         1 CRO       0.023657
    143 H69        -18.1360    -2.4750     3.4700 hc         1 CRO       0.023657
    144 H73        -19.8720    -3.4320     4.3550 ha         1 CRO       0.062571
    145 H77        -23.6600    -5.0720     3.2660 ha         1 CRO       0.062269
    146 H81        -21.6370    -5.0640     4.6990 ha         1 CRO       0.062279
    147 H85        -22.1040    -1.7770     1.0380 ha         1 CRO       0.062571
    148 H89        -23.8750    -3.4030     1.4440 ha         1 CRO       0.062279
    149 C49         20.3050    -2.9250    -2.8490 ca         1 CRO      -0.045151
    150 C53         19.1780    -3.4480    -2.1950 ca         1 CRO      -0.058773
    151 C57         19.0380    -4.8220    -1.9650 ca         1 CRO      -0.061984
    152 C61         20.0320    -5.7070    -2.3640 ca         1 CRO      -0.062248
    153 C65         21.1600    -5.2190    -3.0130 ca         1 CRO      -0.061984
    154 C69         21.2860    -3.8490    -3.2660 ca         1 CRO      -0.058773
    155 C73         20.5200    -1.4290    -3.1410 c3         1 CRO      -0.017979
    156 C77         21.8520    -0.9940    -2.4920 c3         1 CRO      -0.058380
    157 H51         20.6390    -1.3440    -4.2270 hc         1 CRO       0.034972
    158 H62         21.8580    -1.2090    -1.4170 hc         1 CRO       0.023657
    159 H66         22.0500     0.0710    -2.6170 hc         1 CRO       0.023657
    160 H70         22.7080    -1.5140    -2.9370 hc         1 CRO       0.023657
    161 H74         22.1740    -3.5090    -3.7930 ha         1 CRO       0.062571
    162 H78         19.9260    -6.7710    -2.1720 ha         1 CRO       0.062269
    163 H82         21.9440    -5.9030    -3.3260 ha         1 CRO       0.062279
    164 H86         18.3670    -2.8200    -1.8470 ha         1 CRO       0.062571
    165 H90         18.1450    -5.1960    -1.4710 ha         1 CRO       0.062279
    166 C50         17.7640    -0.9890    -5.1430 ca         1 CRO      -0.044104
    167 C54         16.5700    -1.4710    -4.5780 ca         1 CRO      -0.058737
    168 C58         16.1740    -2.7970    -4.7560 ca         1 CRO      -0.061983
    169 C62         16.9600    -3.6620    -5.5110 ca         1 CRO      -0.062248
    170 C66         18.1380    -3.1990    -6.0910 ca         1 CRO      -0.061983
    171 C70         18.5350    -1.8720    -5.9120 ca         1 CRO      -0.058737
    172 C74         18.1650     0.4670    -4.9160 c3         1 CRO      -0.004225
    173 C78         18.6980     1.1010    -6.2170 c3         1 CRO      -0.057363
    174 H53         17.2030     0.9910    -4.7940 hc         1 CRO       0.036050
    175 H63         19.6970     0.7390    -6.4790 hc         1 CRO       0.023692
    176 H67         18.7370     2.1920    -6.1340 hc         1 CRO       0.023692
    177 H71         18.0350     0.8740    -7.0610 hc         1 CRO       0.023692
    178 H75         19.4650    -1.5490    -6.3730 ha         1 CRO       0.062571
    179 H79         16.6570    -4.6970    -5.6460 ha         1 CRO       0.062269
    180 H83         18.7540    -3.8750    -6.6780 ha         1 CRO       0.062279
    181 H87         15.9330    -0.8140    -3.9920 ha         1 CRO       0.062571
    182 H91         15.2510    -3.1550    -4.3060 ha         1 CRO       0.062279
@<TRIPOS>BOND
     1   111   109 1   
     2   112   109 1   
     3   109   110 1   
     4   109   107 1   
     5   100    96 1   
     6   107   104 1   
     7   107   105 1   
     8    98    94 1   
     9    97    92 1   
    10   108   105 1   
    11   102   104 1   
    12   102    99 1   
    13    94    96 1   
    14    96    99 1   
    15    96    91 1   
    16   104   103 2   
    17   105   106 1   
    18    93    91 1   
    19    93    86 1   
    20   101    99 1   
    21    38    33 1   
    22    92    86 ar  
    23    92    84 ar  
    24    99    95 1   
    25    87    82 1   
    26    89    84 1   
    27    91    85 1   
    28    91    90 1   
    29    86    77 ar  
    30    88    83 1   
    31    88    36 1   
    32    23    18 1   
    33    82    83 ar  
    34    82    78 ar  
    35    84    75 ar  
    36    35    32 1   
    37    33    36 1   
    38    33    32 1   
    39    33    37 1   
    40    83    79 ar  
    41    80    78 1   
    42   114    36 1   
    43    30    32 1   
    44    30    13 1   
    45    78    73 ar  
    46    36   113 1   
    47    58    57 1   
    48    46    41 1   
    49    32    34 1   
    50    22    17 1   
    51    39    37 1   
    52    18    17 ar  
    53    18    19 ar  
    54    13    12 ar  
    55    13    14 ar  
    56    27    12 1   
    57    60    57 1   
    58    79    81 1   
    59    79    74 ar  
    60    28    14 1   
    61    77    76 1   
    62    77    70 ar  
    63    75    70 ar  
    64    75    69 1   
    65    12    11 ar  
    66    14    15 ar  
    67    73    74 ar  
    68    73    69 1   
    69    17    16 ar  
    70    57    52 1   
    71    57    59 1   
    72    31    19 1   
    73    31    40 1   
    74    74    71 1   
    75    41    45 1   
    76    41    40 1   
    77    41    44 1   
    78    19    20 ar  
    79    70    68 1   
    80    47    45 1   
    81    11    26 1   
    82    11    10 ar  
    83    15    29 1   
    84    15    10 ar  
    85    48    44 1   
    86    48    51 1   
    87    52    51 1   
    88    52    53 1   
    89    69    63 1   
    90    69    67 1   
    91    65    63 1   
    92    49    44 1   
    93     5     2 1   
    94    10     1 1   
    95    40    42 1   
    96    40    43 1   
    97    44    50 1   
    98    51    56 2   
    99    16     1 1   
   100    16    21 ar  
   101    72    67 1   
   102    63    62 1   
   103    63    61 1   
   104    54    53 1   
   105    20    21 ar  
   106    20    24 1   
   107     1     2 1   
   108     1     6 1   
   109    53    55 1   
   110    67    66 1   
   111    67    64 1   
   112     2     3 1   
   113     2     4 1   
   114    21    25 1   
   115     6     8 1   
   116     6     7 1   
   117     6     9 1   
   118   123   121 1   
   119   126   122 1   
   120   130   116 1   
   121   116   115 ar  
   122   116   117 ar  
   123   121   115 1   
   124   121   122 1   
   125   125   122 1   
   126   131   117 1   
   127   115   120 ar  
   128   117   118 ar  
   129   122   124 1   
   130   118   128 1   
   131   118   119 ar  
   132   120   119 ar  
   133   120   127 1   
   134   119   129 1   
   135   140   138 1   
   136   143   139 1   
   137   147   133 1   
   138   133   132 ar  
   139   133   134 ar  
   140   138   132 1   
   141   138   139 1   
   142   142   139 1   
   143   148   134 1   
   144   132   137 ar  
   145   134   135 ar  
   146   139   141 1   
   147   135   145 1   
   148   135   136 ar  
   149   137   136 ar  
   150   137   144 1   
   151   136   146 1   
   152   157   155 1   
   153   160   156 1   
   154   164   150 1   
   155   150   149 ar  
   156   150   151 ar  
   157   155   149 1   
   158   155   156 1   
   159   159   156 1   
   160   165   151 1   
   161   149   154 ar  
   162   151   152 ar  
   163   156   158 1   
   164   152   162 1   
   165   152   153 ar  
   166   154   153 ar  
   167   154   161 1   
   168   153   163 1   
   169   174   172 1   
   170   177   173 1   
   171   181   167 1   
   172   167   166 ar  
   173   167   168 ar  
   174   172   166 1   
   175   172   173 1   
   176   176   173 1   
   177   182   168 1   
   178   166   171 ar  
   179   168   169 ar  
   180   173   175 1   
   181   169   179 1   
   182   169   170 ar  
   183   171   170 ar  
   184   171   178 1   
   185   170   180 1   
   186   121    52 1   
   187   138    53 1   
   188   155   105 1   
   189   172   107 1   
@<TRIPOS>SUBSTRUCTURE
     1 VEB         1 TEMP              0 ****  ****    0 ROOT
