@<TRIPOS>MOLECULE
*****
 150 155 0 0 0
SMALL
GASTEIGER

@<TRIPOS>ATOM
      1 C          -7.2248    1.5985    2.5002 C.3     1  VEB1        0.0151
      2 C1         -7.4426    3.1332    2.6158 C.3     1  VEB1       -0.0517
      3 H          -6.6109    3.6280    3.1313 H       1  VEB1        0.0241
      4 H1         -8.3479    3.3634    3.1920 H       1  VEB1        0.0241
      5 H2         -7.5513    3.6080    1.6334 H       1  VEB1        0.0241
      6 C2         -6.8558    1.1124    3.9291 C.3     1  VEB1       -0.0517
      7 H3         -5.8946    1.5289    4.2564 H       1  VEB1        0.0241
      8 H4         -6.7650    0.0204    3.9796 H       1  VEB1        0.0241
      9 H5         -7.6030    1.4216    4.6697 H       1  VEB1        0.0241
     10 C3         -6.0053    1.2229    1.6191 C.ar    1  VEB1       -0.0372
     11 C4         -4.9832    2.1449    1.3239 C.ar    1  VEB1       -0.0543
     12 C5         -3.8013    1.7552    0.6744 C.ar    1  VEB1       -0.0197
     13 C6         -3.6049    0.4281    0.3062 C.ar    1  VEB1        0.1206
     14 C7         -4.6293   -0.4902    0.5367 C.ar    1  VEB1       -0.0197
     15 C8         -5.8088   -0.1033    1.1935 C.ar    1  VEB1       -0.0543
     16 C9         -8.5746    1.0254    1.9924 C.ar    1  VEB1       -0.0372
     17 C10        -9.0375    1.3300    0.6962 C.ar    1  VEB1       -0.0543
     18 C11       -10.3196    0.9476    0.2694 C.ar    1  VEB1       -0.0197
     19 C12       -11.1711    0.2641    1.1325 C.ar    1  VEB1        0.1206
     20 C13       -10.7083   -0.1143    2.3885 C.ar    1  VEB1       -0.0197
     21 C14        -9.4305    0.2704    2.8163 C.ar    1  VEB1       -0.0543
     22 H6         -8.4075    1.8930    0.0095 H       1  VEB1        0.0622
     23 H7        -10.6557    1.2068   -0.7307 H       1  VEB1        0.0654
     24 H8        -11.3304   -0.7104    3.0500 H       1  VEB1        0.0654
     25 H9         -9.1381   -0.0240    3.8204 H       1  VEB1        0.0622
     26 H10        -5.0626    3.1874    1.6200 H       1  VEB1        0.0622
     27 H11        -3.0519    2.5151    0.4799 H       1  VEB1        0.0654
     28 H12        -4.5027   -1.5275    0.2366 H       1  VEB1        0.0654
     29 H13        -6.5620   -0.8629    1.3971 H       1  VEB1        0.0622
     30 O          -2.4722   -0.0643   -0.2905 O.3     1  VEB1       -0.4893
     31 O1        -12.4249   -0.0698    0.6847 O.3     1  VEB1       -0.4893
     32 C15        -1.2536    0.6431    0.0091 C.3     1  VEB1        0.1186
     33 C16        -0.0590   -0.2188   -0.4364 C.3     1  VEB1        0.1229
     34 H14        -1.1896    0.8180    1.0908 H       1  VEB1        0.0724
     35 H15        -1.2388    1.5955   -0.5325 H       1  VEB1        0.0724
     36 C17         1.2782    0.4716   -0.1093 C.3     1  VEB1        0.1186
     37 O2         -0.1209   -1.4768    0.2573 O.3     1  VEB1       -0.3850
     38 H16        -0.1261   -0.4493   -1.5054 H       1  VEB1        0.0661
     39 H17        -1.0190   -1.8249    0.1010 H       1  VEB1        0.2101
     40 C18       -13.4622    0.4797    1.5214 C.3     1  VEB1        0.1186
     41 C19       -14.8466   -0.0212    1.0638 C.3     1  VEB1        0.1230
     42 H18       -13.4175    1.5733    1.4448 H       1  VEB1        0.0724
     43 H19       -13.3161    0.1829    2.5664 H       1  VEB1        0.0724
     44 C20       -15.9514    0.7880    1.7576 C.3     1  VEB1        0.1215
     45 O3        -14.9883   -1.4036    1.4229 O.3     1  VEB1       -0.3850
     46 H20       -14.9444    0.0368   -0.0257 H       1  VEB1        0.0662
     47 H21       -15.9031   -1.6552    1.2091 H       1  VEB1        0.2101
     48 O4        -17.2640    0.3733    1.3097 O.3     1  VEB1       -0.4617
     49 H22       -15.8048    1.8518    1.5336 H       1  VEB1        0.0725
     50 H23       -15.9059    0.6244    2.8412 H       1  VEB1        0.0725
     51 C21       -18.2457    1.2280    1.7147 C.2     1  VEB1        0.3097
     52 C22       -19.6723    0.8367    1.2941 C.3     1  VEB1        0.0508
     53 C23       -20.3022    0.1278    2.5120 C.3     1  VEB1       -0.0525
     54 H24       -19.7702   -0.7967    2.7617 H       1  VEB1        0.0237
     55 H25       -21.3574   -0.1099    2.3382 H       1  VEB1        0.0237
     56 H26       -20.2567    0.7606    3.4070 H       1  VEB1        0.0237
     57 O5        -18.0162    2.2116    2.4159 O.2     1  VEB1       -0.2506
     58 C24       -20.4435    2.1769    1.1106 C.3     1  VEB1       -0.0525
     59 H28       -20.0000    2.7862    0.3155 H       1  VEB1        0.0237
     60 H29       -20.4327    2.7827    2.0247 H       1  VEB1        0.0237
     61 H30       -21.4963    2.0019    0.8601 H       1  VEB1        0.0237
     62 H31         8.3422   -1.3998    3.1584 H       1  VEB1        0.0241
     63 H32         6.5990   -1.4440    2.9593 H       1  VEB1        0.0241
     64 C25         7.5437   -1.3433    2.4101 C.3     1  VEB1       -0.0517
     65 H33         6.9466    1.1274    3.3737 H       1  VEB1        0.0241
     66 H34         7.6467   -2.2227    1.7631 H       1  VEB1        0.0241
     67 H35         8.6951    1.0118    3.2048 H       1  VEB1        0.0241
     68 C26         7.7612    1.1224    2.6395 C.3     1  VEB1       -0.0517
     69 H36        10.1564   -1.0148    2.0473 H       1  VEB1        0.0622
     70 C27         7.5855   -0.0148    1.5979 C.3     1  VEB1        0.0151
     71 C28        10.0684   -0.4844    1.1027 C.ar    1  VEB1       -0.0543
     72 H37         5.5366    1.9476    1.7041 H       1  VEB1        0.0622
     73 H38         7.7964    2.1090    2.1616 H       1  VEB1        0.0241
     74 C29         6.2266    0.0662    0.8483 C.ar    1  VEB1       -0.0372
     75 C30         5.2968    1.0988    1.0695 C.ar    1  VEB1       -0.0543
     76 C31         8.8355    0.0585    0.6851 C.ar    1  VEB1       -0.0372
     77 H39        12.1423   -0.8320    0.6836 H       1  VEB1        0.0654
     78 C32        11.2321   -0.3549    0.3342 C.ar    1  VEB1       -0.0197
     79 C33         5.8340   -0.9652   -0.0263 C.ar    1  VEB1       -0.0543
     80 C34         4.0059    1.0595    0.5177 C.ar    1  VEB1       -0.0197
     81 H40         6.5202   -1.7765   -0.2631 H       1  VEB1        0.0622
     82 H41         3.3300    1.8791    0.7379 H       1  VEB1        0.0654
     83 C35         4.5429   -1.0045   -0.5739 C.ar    1  VEB1       -0.0197
     84 C36         3.6073   -0.0173   -0.2683 C.ar    1  VEB1        0.1206
     85 C37         8.8251    0.7444   -0.5417 C.ar    1  VEB1       -0.0543
     86 H42        13.3389    2.0330   -0.8229 H       1  VEB1        0.0724
     87 C38        11.2026    0.3484   -0.8635 C.ar    1  VEB1        0.1206
     88 H43         4.2563   -1.8370   -1.2121 H       1  VEB1        0.0654
     89 O6          2.3527   -0.2009   -0.7886 O.3     1  VEB1       -0.4893
     90 H44         7.9097    1.1959   -0.9185 H       1  VEB1        0.0622
     91 H45        13.6702    0.4365   -0.0915 H       1  VEB1        0.0724
     92 C39        13.4775    0.9655   -1.0304 C.3     1  VEB1        0.1186
     93 C40         9.9918    0.8713   -1.3133 C.ar    1  VEB1       -0.0197
     94 O7         12.2895    0.4829   -1.6845 O.3     1  VEB1       -0.4893
     95 O8         14.9996   -0.6452   -2.0145 O.3     1  VEB1       -0.3850
     96 H46        16.1998    1.1543   -0.4690 H       1  VEB1        0.0725
     97 C41        14.6796    0.7568   -1.9634 C.3     1  VEB1        0.1230
     98 H47         9.9510    1.3914   -2.2667 H       1  VEB1        0.0654
     99 H48        15.8114   -0.7191   -2.5482 H       1  VEB1        0.2101
    100 C42        15.9156    1.5135   -1.4655 C.3     1  VEB1        0.1215
    101 H49        14.4322    1.0556   -2.9883 H       1  VEB1        0.0662
    102 H50        15.7218    2.5915   -1.4382 H       1  VEB1        0.0725
    103 O9         17.0024    1.2442   -2.3762 O.3     1  VEB1       -0.4617
    104 O10        18.3507    2.5261   -1.0345 O.2     1  VEB1       -0.2506
    105 C43        18.1937    1.8018   -2.0082 C.2     1  VEB1        0.3097
    106 C44        19.6353   -0.1099   -2.7499 C.3     1  VEB1       -0.0525
    107 H52        18.9716   -0.5333   -1.9835 H       1  VEB1        0.0237
    108 C45        19.2869    1.3756   -2.9770 C.3     1  VEB1        0.0508
    109 H53        18.8886    1.5444   -3.9856 H       1  VEB1        0.0408
    110 H54        20.6500   -0.2109   -2.3415 H       1  VEB1        0.0237
    111 C46        20.5180    2.2684   -2.8224 C.3     1  VEB1       -0.0525
    112 H55        20.9534    2.1819   -1.8206 H       1  VEB1        0.0237
    113 H56        20.2568    3.3209   -2.9781 H       1  VEB1        0.0237
    114 H57        21.2892    2.0017   -3.5522 H       1  VEB1        0.0237
    115 H58         1.4330    0.4367    0.9767 H       1  VEB1        0.0724
    116 H59         1.2568    1.5117   -0.4540 H       1  VEB1        0.0724
    117 C         -19.9713   -1.4895    0.0983 C.ar    1  CRO01      -0.0476
    118 C1        -21.2530   -2.0732    0.1087 C.ar    1  CRO01      -0.0586
    119 C2        -21.4176   -3.4514    0.2543 C.ar    1  CRO01      -0.0615
    120 C3        -20.3027   -4.2710    0.3930 C.ar    1  CRO01      -0.0617
    121 C4        -19.0267   -3.7117    0.3805 C.ar    1  CRO01      -0.0615
    122 C5        -18.8621   -2.3313    0.2312 C.ar    1  CRO01      -0.0586
    123 C6        -19.8454    0.0244   -0.0435 C.3     1  CRO01      -0.0305
    124 C7        -18.8899    0.4259   -1.1793 C.3     1  CRO01      -0.0613
    125 H1        -20.8278    0.3265   -0.4401 H       1  CRO01       0.0311
    126 H2        -17.8680    0.0690   -1.0291 H       1  CRO01       0.0233
    127 H3        -18.8554    1.5124   -1.3041 H       1  CRO01       0.0233
    128 H4        -19.2331   -0.0017   -2.1292 H       1  CRO01       0.0233
    129 H5        -17.8568   -1.9276    0.2135 H       1  CRO01       0.0620
    130 H6        -20.4276   -5.3445    0.5075 H       1  CRO01       0.0618
    131 H7        -18.1558   -4.3541    0.4848 H       1  CRO01       0.0618
    132 H8        -22.1422   -1.4535    0.0064 H       1  CRO01       0.0620
    133 H9        -22.4156   -3.8821    0.2600 H       1  CRO01       0.0618
    134 C          19.4878   -2.4375   -3.6819 C.ar    1  CRO11      -0.0476
    135 C1         18.2612   -3.1211   -3.6642 C.ar    1  CRO11      -0.0586
    136 C2         18.2007   -4.4726   -3.3204 C.ar    1  CRO11      -0.0615
    137 C3         19.3649   -5.1604   -2.9889 C.ar    1  CRO11      -0.0617
    138 C4         20.5887   -4.4952   -2.9949 C.ar    1  CRO11      -0.0615
    139 C5         20.6503   -3.1410   -3.3330 C.ar    1  CRO11      -0.0586
    140 C6         19.5112   -0.9578   -4.0351 C.3     1  CRO11      -0.0305
    141 C7         20.6055   -0.6218   -5.0561 C.3     1  CRO11      -0.0613
    142 H1         18.5518   -0.7189   -4.5145 H       1  CRO11       0.0311
    143 H2         21.6093   -0.7150   -4.6276 H       1  CRO11       0.0233
    144 H3         20.4994    0.4048   -5.4210 H       1  CRO11       0.0233
    145 H4         20.5492   -1.2874   -5.9247 H       1  CRO11       0.0233
    146 H5         21.6172   -2.6446   -3.3158 H       1  CRO11       0.0620
    147 H6         19.3176   -6.2128   -2.7224 H       1  CRO11       0.0618
    148 H7         21.4974   -5.0305   -2.7320 H       1  CRO11       0.0618
    149 H8         17.3375   -2.6056   -3.9172 H       1  CRO11       0.0620
    150 H9         17.2431   -4.9869   -3.3098 H       1  CRO11       0.0618
@<TRIPOS>BOND
     1   113   111    1
     2   114   111    1
     3   111   112    1
     4   111   108    1
     5   109   108    1
     6   101    97    1
     7   108   105    1
     8   108   106    1
     9    99    95    1
    10    98    93    1
    11   110   106    1
    12   103   105    1
    13   103   100    1
    14    95    97    1
    15    97   100    1
    16    97    92    1
    17   105   104    2
    18   106   107    1
    19    94    92    1
    20    94    87    1
    21   102   100    1
    22    38    33    1
    23    93    87   ar
    24    93    85   ar
    25   100    96    1
    26    88    83    1
    27    90    85    1
    28    92    86    1
    29    92    91    1
    30    87    78   ar
    31    89    84    1
    32    89    36    1
    33    23    18    1
    34    83    84   ar
    35    83    79   ar
    36    85    76   ar
    37    35    32    1
    38    33    36    1
    39    33    32    1
    40    33    37    1
    41    84    80   ar
    42    81    79    1
    43   116    36    1
    44    30    32    1
    45    30    13    1
    46    79    74   ar
    47    36   115    1
    48    59    58    1
    49    46    41    1
    50    32    34    1
    51    22    17    1
    52    39    37    1
    53    18    17   ar
    54    18    19   ar
    55    13    12   ar
    56    13    14   ar
    57    27    12    1
    58    61    58    1
    59    80    82    1
    60    80    75   ar
    61    28    14    1
    62    78    77    1
    63    78    71   ar
    64    76    71   ar
    65    76    70    1
    66    12    11   ar
    67    14    15   ar
    68    74    75   ar
    69    74    70    1
    70    17    16   ar
    71    58    52    1
    72    58    60    1
    73    31    19    1
    74    31    40    1
    75    75    72    1
    76    41    45    1
    77    41    40    1
    78    41    44    1
    79    19    20   ar
    80    71    69    1
    81    47    45    1
    82    11    26    1
    83    11    10   ar
    84    15    29    1
    85    15    10   ar
    86    48    44    1
    87    48    51    1
    88    52    51    1
    89    52    53    1
    90    70    64    1
    91    70    68    1
    92    66    64    1
    93    49    44    1
    94     5     2    1
    95    10     1    1
    96    40    42    1
    97    40    43    1
    98    44    50    1
    99    51    57    2
   100    16     1    1
   101    16    21   ar
   102    73    68    1
   103    64    63    1
   104    64    62    1
   105    55    53    1
   106    20    21   ar
   107    20    24    1
   108     1     2    1
   109     1     6    1
   110    53    54    1
   111    53    56    1
   112    68    67    1
   113    68    65    1
   114     2     3    1
   115     2     4    1
   116    21    25    1
   117     6     8    1
   118     6     7    1
   119     6     9    1
   120   125   123    1
   121   128   124    1
   122   132   118    1
   123   118   117   ar
   124   118   119   ar
   125   123   117    1
   126   123   124    1
   127   127   124    1
   128   133   119    1
   129   117   122   ar
   130   119   120   ar
   131   124   126    1
   132   120   130    1
   133   120   121   ar
   134   122   121   ar
   135   122   129    1
   136   121   131    1
   137   142   140    1
   138   145   141    1
   139   149   135    1
   140   135   134   ar
   141   135   136   ar
   142   140   134    1
   143   140   141    1
   144   144   141    1
   145   150   136    1
   146   134   139   ar
   147   136   137   ar
   148   141   143    1
   149   137   147    1
   150   137   138   ar
   151   139   138   ar
   152   139   146    1
   153   138   148    1
   154   123    52    1
   155   140   106    1
