@<TRIPOS>MOLECULE
*****
 166 172 0 0 0
SMALL
GASTEIGER

@<TRIPOS>ATOM
      1 C          -8.7119    2.0406    3.0143 C.3     1  VEB1        0.0151
      2 C1         -8.9056    3.5764    3.1554 C.3     1  VEB1       -0.0517
      3 H          -8.0484    4.0538    3.6444 H       1  VEB1        0.0241
      4 H1         -9.7867    3.8104    3.7666 H       1  VEB1        0.0241
      5 H2         -9.0454    4.0650    2.1836 H       1  VEB1        0.0241
      6 C2         -8.3125    1.5313    4.4260 C.3     1  VEB1       -0.0517
      7 H3         -7.3381    1.9324    4.7324 H       1  VEB1        0.0241
      8 H4         -8.2346    0.4379    4.4616 H       1  VEB1        0.0241
      9 H5         -9.0370    1.8400    5.1892 H       1  VEB1        0.0241
     10 C3         -7.5315    1.6554    2.0895 C.ar    1  VEB1       -0.0372
     11 C4         -6.5334    2.5770    1.7262 C.ar    1  VEB1       -0.0543
     12 C5         -5.3895    2.1792    1.0207 C.ar    1  VEB1       -0.0197
     13 C6         -5.2090    0.8450    0.6674 C.ar    1  VEB1        0.1206
     14 C7         -6.2149   -0.0735    0.9612 C.ar    1  VEB1       -0.0197
     15 C8         -7.3569    0.3224    1.6724 C.ar    1  VEB1       -0.0543
     16 C9        -10.0778    1.4941    2.5307 C.ar    1  VEB1       -0.0372
     17 C10       -10.5577    1.8244    1.2473 C.ar    1  VEB1       -0.0543
     18 C11       -11.8499    1.4682    0.8410 C.ar    1  VEB1       -0.0197
     19 C12       -12.6921    0.7874    1.7138 C.ar    1  VEB1        0.1206
     20 C13       -12.2141    0.3798    2.9545 C.ar    1  VEB1       -0.0197
     21 C14       -10.9236    0.7363    3.3612 C.ar    1  VEB1       -0.0543
     22 H6         -9.9328    2.3883    0.5568 H       1  VEB1        0.0622
     23 H7        -12.2044    1.7486   -0.1469 H       1  VEB1        0.0654
     24 H8        -12.8322   -0.2160    3.6194 H       1  VEB1        0.0654
     25 H9        -10.6124    0.4202    4.3528 H       1  VEB1        0.0622
     26 H10        -6.6028    3.6243    2.0070 H       1  VEB1        0.0622
     27 H11        -4.6539    2.9362    0.7701 H       1  VEB1        0.0654
     28 H12        -6.1008   -1.1145    0.6696 H       1  VEB1        0.0654
     29 H13        -8.0996   -0.4335    1.9232 H       1  VEB1        0.0622
     30 O          -4.1009    0.3515    0.0275 O.3     1  VEB1       -0.4893
     31 O1        -13.9613    0.5038    1.2846 O.3     1  VEB1       -0.4893
     32 C15        -2.8724    1.0318    0.3435 C.3     1  VEB1        0.1186
     33 C16        -1.6905    0.1484   -0.0844 C.3     1  VEB1        0.1229
     34 H14        -2.8158    1.2064    1.4260 H       1  VEB1        0.0724
     35 H15        -2.8320    1.9842   -0.1969 H       1  VEB1        0.0724
     36 C17        -0.3551    0.8188    0.2793 C.3     1  VEB1        0.1186
     37 O2         -1.7890   -1.1114    0.6008 O.3     1  VEB1       -0.3850
     38 H16        -1.7382   -0.0739   -1.1561 H       1  VEB1        0.0661
     39 H17        -2.6905   -1.4415    0.4264 H       1  VEB1        0.2101
     40 C18       -14.9648    1.0045    2.1894 C.3     1  VEB1        0.1186
     41 C19       -16.3527    0.7591    1.5859 C.3     1  VEB1        0.1230
     42 H18       -14.8065    2.0807    2.3338 H       1  VEB1        0.0724
     43 H19       -14.8986    0.4854    3.1523 H       1  VEB1        0.0724
     44 C20       -17.4317    1.5499    2.3329 C.3     1  VEB1        0.1215
     45 O3        -16.6702   -0.6406    1.6776 O.3     1  VEB1       -0.3850
     46 H20       -16.3598    1.0095    0.5189 H       1  VEB1        0.0662
     47 H21       -17.5628   -0.7421    1.3007 H       1  VEB1        0.2101
     48 O4        -18.6921    1.2973    1.6816 O.3     1  VEB1       -0.4617
     49 H22       -17.2152    2.6233    2.2996 H       1  VEB1        0.0725
     50 H23       -17.5006    1.2082    3.3726 H       1  VEB1        0.0725
     51 C21       -19.7650    1.9151    2.2605 C.2     1  VEB1        0.3097
     52 C22       -21.0356    1.5225    1.5195 C.3     1  VEB1        0.0508
     53 C23       -21.4364    0.0974    1.9418 C.3     1  VEB1       -0.0525
     54 H25       -21.7464    0.1087    2.9967 H       1  VEB1        0.0237
     55 H26       -20.5376   -0.5307    1.9146 H       1  VEB1        0.0237
     56 O5        -19.7051    2.6546    3.2288 O.2     1  VEB1       -0.2506
     57 C24       -22.1400    2.5470    1.7654 C.3     1  VEB1       -0.0525
     58 H27       -20.7865    1.5574    0.4525 H       1  VEB1        0.0408
     59 H28       -21.7922    3.5570    1.5207 H       1  VEB1        0.0237
     60 H29       -22.4554    2.5531    2.8143 H       1  VEB1        0.0237
     61 H30       -23.0177    2.3407    1.1453 H       1  VEB1        0.0237
     62 H31         6.7636   -1.0299    3.6244 H       1  VEB1        0.0241
     63 H32         5.0148   -1.1096    3.4794 H       1  VEB1        0.0241
     64 C25         5.9405   -0.9914    2.9019 C.3     1  VEB1       -0.0517
     65 H33         5.3049    1.4657    3.8766 H       1  VEB1        0.0241
     66 H34         6.0406   -1.8699    2.2535 H       1  VEB1        0.0241
     67 H35         7.0532    1.3840    3.6709 H       1  VEB1        0.0241
     68 C26         6.1049    1.4768    3.1266 C.3     1  VEB1       -0.0517
     69 H36         8.5296   -0.6841    2.3881 H       1  VEB1        0.0622
     70 C27         5.9311    0.3361    2.0898 C.3     1  VEB1        0.0151
     71 C28         8.3962   -0.1179    1.4702 C.ar    1  VEB1       -0.0543
     72 H37         3.8577    2.2712    2.2031 H       1  VEB1        0.0622
     73 H38         6.1106    2.4644    2.6496 H       1  VEB1        0.0241
     74 C29         4.5596    0.3879    1.3626 C.ar    1  VEB1       -0.0372
     75 C30         3.6263    1.4191    1.5699 C.ar    1  VEB1       -0.0543
     76 C31         7.1469    0.4449    1.1362 C.ar    1  VEB1       -0.0372
     77 H39        10.4497   -0.4516    0.9116 H       1  VEB1        0.0654
     78 C32         9.5152    0.0329    0.6412 C.ar    1  VEB1       -0.0197
     79 C33         4.1806   -0.6500    0.4891 C.ar    1  VEB1       -0.0543
     80 C34         2.3483    1.3804    0.9913 C.ar    1  VEB1       -0.0197
     81 H40         4.8730   -1.4585    0.2616 H       1  VEB1        0.0622
     82 H41         1.6709    2.2034    1.1931 H       1  VEB1        0.0654
     83 C35         2.9021   -0.6896   -0.0837 C.ar    1  VEB1       -0.0197
     84 C36         1.9664    0.3041    0.1953 C.ar    1  VEB1        0.1206
     85 C37         7.0741    1.1803   -0.0611 C.ar    1  VEB1       -0.0543
     86 H42        11.6297    2.5369   -1.0745 H       1  VEB1        0.0724
     87 C38         9.4166    0.7756   -0.5288 C.ar    1  VEB1        0.1206
     88 H43         2.6271   -1.5218   -0.7272 H       1  VEB1        0.0654
     89 O6          0.7275    0.1276   -0.3624 O.3     1  VEB1       -0.4893
     90 H44         6.1424    1.6494   -0.3705 H       1  VEB1        0.0622
     91 H45        11.7313    1.3273    0.2262 H       1  VEB1        0.0724
     92 C39        11.6538    1.4629   -0.8587 C.3     1  VEB1        0.1186
     93 C40         8.1920    1.3269   -0.8923 C.ar    1  VEB1       -0.0197
     94 O7         10.4490    0.9030   -1.4127 O.3     1  VEB1       -0.4893
     95 O8         13.0897   -0.4850   -0.9667 O.3     1  VEB1       -0.3850
     96 H46        14.4684    1.7041   -0.4243 H       1  VEB1        0.0725
     97 C41        12.8452    0.8026   -1.5613 C.3     1  VEB1        0.1230
     98 H47         8.1019    1.8770   -1.8248 H       1  VEB1        0.0654
     99 H48        13.8851   -0.8426   -1.4032 H       1  VEB1        0.2101
    100 C42        14.1242    1.6391   -1.4621 C.3     1  VEB1        0.1215
    101 H49        12.6055    0.6132   -2.6141 H       1  VEB1        0.0662
    102 H50        13.9563    2.6409   -1.8720 H       1  VEB1        0.0725
    103 O9         15.1389    0.9425   -2.2183 O.3     1  VEB1       -0.4617
    104 O10        16.3517    2.8706   -2.3595 O.2     1  VEB1       -0.2506
    105 C43        16.2136    1.6824   -2.6166 C.2     1  VEB1        0.3097
    106 C44        17.6096   -0.3653   -2.4862 C.3     1  VEB1       -0.0525
    107 H52        16.6947   -0.9266   -2.3103 H       1  VEB1        0.0237
    108 C45        17.2084    0.8201   -3.4393 C.3     1  VEB1        0.0508
    109 H54        17.8488    0.0507   -1.4953 H       1  VEB1        0.0237
    110 C46        18.4375    1.7185   -3.6974 C.3     1  VEB1       -0.0525
    111 H55        18.9011    2.0325   -2.7546 H       1  VEB1        0.0237
    112 H56        18.1662    2.6457   -4.2150 H       1  VEB1        0.0237
    113 H57        19.1982    1.2098   -4.2970 H       1  VEB1        0.0237
    114 H58        -0.2353    0.7866    1.3700 H       1  VEB1        0.0724
    115 H59        -0.3508    1.8579   -0.0697 H       1  VEB1        0.0724
    116 C         -22.8471   -1.9872    1.5561 C.ar    1  CRO01      -0.0476
    117 C1        -24.1733   -2.3833    1.7901 C.ar    1  CRO01      -0.0586
    118 C2        -24.4719   -3.6961    2.1636 C.ar    1  CRO01      -0.0615
    119 C3        -23.4504   -4.6312    2.3102 C.ar    1  CRO01      -0.0617
    120 C4        -22.1303   -4.2562    2.0778 C.ar    1  CRO01      -0.0615
    121 C5        -21.8312   -2.9466    1.6961 C.ar    1  CRO01      -0.0586
    122 C6        -22.5537   -0.5620    1.0991 C.3     1  CRO01      -0.0305
    123 C7        -22.2422   -0.5716   -0.4013 C.3     1  CRO01      -0.0613
    124 H1        -23.4668    0.0303    1.2431 H       1  CRO01       0.0311
    125 H2        -21.2669   -1.0269   -0.6057 H       1  CRO01       0.0233
    126 H3        -22.2365    0.4430   -0.8112 H       1  CRO01       0.0233
    127 H4        -22.9978   -1.1370   -0.9589 H       1  CRO01       0.0233
    128 H5        -20.7931   -2.6929    1.4982 H       1  CRO01       0.0620
    129 H6        -23.6829   -5.6528    2.5986 H       1  CRO01       0.0618
    130 H7        -21.3310   -4.9851    2.1849 H       1  CRO01       0.0618
    131 H8        -24.9897   -1.6743    1.6718 H       1  CRO01       0.0620
    132 H9        -25.5042   -3.9904    2.3342 H       1  CRO01       0.0618
    133 C          18.6142   -2.7999   -2.5479 C.ar    1  CRO11      -0.0476
    134 C1         17.4258   -3.3615   -2.0512 C.ar    1  CRO11      -0.0586
    135 C2         17.3215   -4.7263   -1.7550 C.ar    1  CRO11      -0.0615
    136 C3         18.4066   -5.5703   -1.9454 C.ar    1  CRO11      -0.0617
    137 C4         19.5902   -5.0518   -2.4540 C.ar    1  CRO11      -0.0615
    138 C5         19.6857   -3.6902   -2.7655 C.ar    1  CRO11      -0.0586
    139 C6         18.7819   -1.3068   -2.9020 C.3     1  CRO11      -0.0305
    140 C7         20.1019   -0.7845   -2.2902 C.3     1  CRO11      -0.0613
    141 H1         18.8910   -1.2615   -3.9901 H       1  CRO11       0.0311
    142 H2         20.1491   -0.9880   -1.2146 H       1  CRO11       0.0233
    143 H3         20.2325    0.2895   -2.4284 H       1  CRO11       0.0233
    144 H4         20.9757   -1.2514   -2.7571 H       1  CRO11       0.0233
    145 H5         20.6248   -3.3379   -3.1847 H       1  CRO11       0.0620
    146 H6         18.3253   -6.6268   -1.7075 H       1  CRO11       0.0618
    147 H7         20.4430   -5.7058   -2.6145 H       1  CRO11       0.0618
    148 H8         16.5282   -2.7775   -1.8885 H       1  CRO11       0.0620
    149 H9         16.3819   -5.1235   -1.3788 H       1  CRO11       0.0618
    150 C          16.0473   -1.0359   -4.9510 C.ar    1  CRO21      -0.0476
    151 C1         14.8208   -1.4866   -4.4343 C.ar    1  CRO21      -0.0586
    152 C2         14.4260   -2.8196   -4.5674 C.ar    1  CRO21      -0.0615
    153 C3         15.2467   -3.7252   -5.2318 C.ar    1  CRO21      -0.0617
    154 C4         16.4565   -3.2955   -5.7684 C.ar    1  CRO21      -0.0615
    155 C5         16.8508   -1.9619   -5.6337 C.ar    1  CRO21      -0.0586
    156 C6         16.4432    0.4313   -4.7856 C.3     1  CRO21      -0.0305
    157 C7         17.0811    0.9736   -6.0814 C.3     1  CRO21      -0.0613
    158 H1         15.4812    0.9677   -4.7701 H       1  CRO21       0.0311
    159 H2         18.0973    0.5977   -6.2342 H       1  CRO21       0.0233
    160 H3         17.1151    2.0679   -6.0755 H       1  CRO21       0.0233
    161 H4         16.4880    0.6862   -6.9582 H       1  CRO21       0.0233
    162 H5         17.8039   -1.6673   -6.0650 H       1  CRO21       0.0620
    163 H6         14.9452   -4.7640   -5.3332 H       1  CRO21       0.0618
    164 H7         17.1007   -4.0008   -6.2869 H       1  CRO21       0.0618
    165 H8         14.1495   -0.7985   -3.9293 H       1  CRO21       0.0620
    166 H9         13.4755   -3.1490   -4.1556 H       1  CRO21       0.0618
@<TRIPOS>BOND
     1   112   110    1
     2   113   110    1
     3   110   111    1
     4   110   108    1
     5   101    97    1
     6   108   105    1
     7   108   106    1
     8    99    95    1
     9    98    93    1
    10   109   106    1
    11   103   105    1
    12   103   100    1
    13    95    97    1
    14    97   100    1
    15    97    92    1
    16   105   104    2
    17   106   107    1
    18    94    92    1
    19    94    87    1
    20   102   100    1
    21    38    33    1
    22    93    87   ar
    23    93    85   ar
    24   100    96    1
    25    88    83    1
    26    90    85    1
    27    92    86    1
    28    92    91    1
    29    87    78   ar
    30    89    84    1
    31    89    36    1
    32    23    18    1
    33    83    84   ar
    34    83    79   ar
    35    85    76   ar
    36    35    32    1
    37    33    36    1
    38    33    32    1
    39    33    37    1
    40    84    80   ar
    41    81    79    1
    42   115    36    1
    43    30    32    1
    44    30    13    1
    45    79    74   ar
    46    36   114    1
    47    59    57    1
    48    46    41    1
    49    32    34    1
    50    22    17    1
    51    39    37    1
    52    18    17   ar
    53    18    19   ar
    54    13    12   ar
    55    13    14   ar
    56    27    12    1
    57    61    57    1
    58    80    82    1
    59    80    75   ar
    60    28    14    1
    61    78    77    1
    62    78    71   ar
    63    76    71   ar
    64    76    70    1
    65    12    11   ar
    66    14    15   ar
    67    58    52    1
    68    74    75   ar
    69    74    70    1
    70    17    16   ar
    71    57    52    1
    72    57    60    1
    73    31    19    1
    74    31    40    1
    75    75    72    1
    76    41    45    1
    77    41    40    1
    78    41    44    1
    79    19    20   ar
    80    71    69    1
    81    47    45    1
    82    11    26    1
    83    11    10   ar
    84    15    29    1
    85    15    10   ar
    86    48    44    1
    87    48    51    1
    88    52    51    1
    89    52    53    1
    90    70    64    1
    91    70    68    1
    92    66    64    1
    93    49    44    1
    94     5     2    1
    95    10     1    1
    96    40    42    1
    97    40    43    1
    98    44    50    1
    99    51    56    2
   100    16     1    1
   101    16    21   ar
   102    73    68    1
   103    64    63    1
   104    64    62    1
   105    54    53    1
   106    20    21   ar
   107    20    24    1
   108     1     2    1
   109     1     6    1
   110    53    55    1
   111    68    67    1
   112    68    65    1
   113     2     3    1
   114     2     4    1
   115    21    25    1
   116     6     8    1
   117     6     7    1
   118     6     9    1
   119   124   122    1
   120   127   123    1
   121   131   117    1
   122   117   116   ar
   123   117   118   ar
   124   122   116    1
   125   122   123    1
   126   126   123    1
   127   132   118    1
   128   116   121   ar
   129   118   119   ar
   130   123   125    1
   131   119   129    1
   132   119   120   ar
   133   121   120   ar
   134   121   128    1
   135   120   130    1
   136   141   139    1
   137   144   140    1
   138   148   134    1
   139   134   133   ar
   140   134   135   ar
   141   139   133    1
   142   139   140    1
   143   143   140    1
   144   149   135    1
   145   133   138   ar
   146   135   136   ar
   147   140   142    1
   148   136   146    1
   149   136   137   ar
   150   138   137   ar
   151   138   145    1
   152   137   147    1
   153   158   156    1
   154   161   157    1
   155   165   151    1
   156   151   150   ar
   157   151   152   ar
   158   156   150    1
   159   156   157    1
   160   160   157    1
   161   166   152    1
   162   150   155   ar
   163   152   153   ar
   164   157   159    1
   165   153   163    1
   166   153   154   ar
   167   155   154   ar
   168   155   162    1
   169   154   164    1
   170   122    53    1
   171   139   106    1
   172   156   108    1
