@<TRIPOS>MOLECULE
*****
 166 172 0 0 0
SMALL
GASTEIGER

@<TRIPOS>ATOM
      1 C          -5.0857    1.9612    2.5762 C.3     1  VEB1        0.0151
      2 C1         -5.2866    3.4957    2.7110 C.3     1  VEB1       -0.0517
      3 H          -4.4512    3.9743    3.2354 H       1  VEB1        0.0241
      4 H1         -6.1910    3.7294    3.2873 H       1  VEB1        0.0241
      5 H2         -5.3884    3.9822    1.7335 H       1  VEB1        0.0241
      6 C2         -4.7386    1.4447    4.0001 C.3     1  VEB1       -0.0517
      7 H3         -3.7630    1.8203    4.3343 H       1  VEB1        0.0241
      8 H4         -4.6919    0.3494    4.0370 H       1  VEB1        0.0241
      9 H5         -5.4730    1.7740    4.7447 H       1  VEB1        0.0241
     10 C3         -3.8588    1.5834    1.7047 C.ar    1  VEB1       -0.0372
     11 C4         -2.8300    2.5022    1.4219 C.ar    1  VEB1       -0.0543
     12 C5         -1.6417    2.1094    0.7856 C.ar    1  VEB1       -0.0197
     13 C6         -1.4455    0.7825    0.4174 C.ar    1  VEB1        0.1206
     14 C7         -2.4767   -0.1321    0.6334 C.ar    1  VEB1       -0.0197
     15 C8         -3.6624    0.2576    1.2777 C.ar    1  VEB1       -0.0543
     16 C9         -6.4393    1.4181    2.0467 C.ar    1  VEB1       -0.0372
     17 C10        -6.8436    1.6653    0.7211 C.ar    1  VEB1       -0.0543
     18 C11        -8.1227    1.3002    0.2675 C.ar    1  VEB1       -0.0197
     19 C12        -9.0387    0.6987    1.1291 C.ar    1  VEB1        0.1206
     20 C13        -8.6390    0.3972    2.4271 C.ar    1  VEB1       -0.0197
     21 C14        -7.3608    0.7573    2.8800 C.ar    1  VEB1       -0.0543
     22 H6         -6.1699    2.1665    0.0281 H       1  VEB1        0.0622
     23 H7         -8.4078    1.5102   -0.7601 H       1  VEB1        0.0654
     24 H8         -9.2944   -0.1313    3.1116 H       1  VEB1        0.0654
     25 H9         -7.1202    0.5177    3.9122 H       1  VEB1        0.0622
     26 H10        -2.9087    3.5446    1.7186 H       1  VEB1        0.0622
     27 H11        -0.8871    2.8669    0.6014 H       1  VEB1        0.0654
     28 H12        -2.3506   -1.1692    0.3322 H       1  VEB1        0.0654
     29 H13        -4.4210   -0.4993    1.4711 H       1  VEB1        0.0622
     30 O          -0.3070    0.2870   -0.1658 O.3     1  VEB1       -0.4893
     31 O1        -10.2719    0.3885    0.6123 O.3     1  VEB1       -0.4893
     32 C15         0.9114    0.9895    0.1482 C.3     1  VEB1        0.1186
     33 C16         2.1076    0.1208   -0.2805 C.3     1  VEB1        0.1229
     34 H14         0.9625    1.1661    1.2303 H       1  VEB1        0.0724
     35 H15         0.9371    1.9407   -0.3950 H       1  VEB1        0.0724
     36 C17         3.4465    0.8027    0.0603 C.3     1  VEB1        0.1186
     37 O2          2.0299   -1.1355    0.4149 O.3     1  VEB1       -0.3850
     38 H16         2.0519   -0.1117   -1.3498 H       1  VEB1        0.0661
     39 H17         1.1325   -1.4797    0.2463 H       1  VEB1        0.2101
     40 C18       -11.3739    0.6665    1.4964 C.3     1  VEB1        0.1186
     41 C19       -12.7085    0.2845    0.8249 C.3     1  VEB1        0.1230
     42 H18       -11.3668    1.7386    1.7294 H       1  VEB1        0.0724
     43 H19       -11.2804    0.0847    2.4193 H       1  VEB1        0.0724
     44 C20       -13.8876    0.8696    1.6135 C.3     1  VEB1        0.1215
     45 O3        -12.8329   -1.1470    0.8115 O.3     1  VEB1       -0.3850
     46 H20       -12.7339    0.6144   -0.2192 H       1  VEB1        0.0662
     47 H21       -13.7420   -1.3506    0.5302 H       1  VEB1        0.2101
     48 O4        -15.1406    0.5460    0.9646 O.3     1  VEB1       -0.4617
     49 H22       -13.7919    1.9605    1.6699 H       1  VEB1        0.0725
     50 H23       -13.8980    0.4413    2.6235 H       1  VEB1        0.0725
     51 C21       -16.2231    1.0229    1.6399 C.2     1  VEB1        0.3097
     52 C22       -17.5753    0.7749    0.9564 C.3     1  VEB1        0.0508
     53 C23       -18.4032   -0.3089    1.7501 C.3     1  VEB1       -0.0525
     54 H25       -19.3960   -0.3185    1.2852 H       1  VEB1        0.0237
     55 H26       -18.5854    0.0698    2.7676 H       1  VEB1        0.0237
     56 O5        -16.1266    1.5868    2.7276 O.2     1  VEB1       -0.2506
     57 C24       -18.3602    2.1168    1.2110 C.3     1  VEB1       -0.0525
     58 H28       -17.8296    2.9839    0.8041 H       1  VEB1        0.0237
     59 H29       -18.4993    2.3107    2.2818 H       1  VEB1        0.0237
     60 H30       -19.3607    2.0877    0.7634 H       1  VEB1        0.0237
     61 H31        10.6038   -1.0062    3.2413 H       1  VEB1        0.0241
     62 H32         8.8537   -1.0423    3.1056 H       1  VEB1        0.0241
     63 C25         9.7789   -0.9600    2.5212 C.3     1  VEB1       -0.0517
     64 H33         9.2318    1.5201    3.4631 H       1  VEB1        0.0241
     65 H34         9.8509   -1.8531    1.8889 H       1  VEB1        0.0241
     66 H35        10.9722    1.4128    3.2183 H       1  VEB1        0.0241
     67 C26        10.0132    1.5079    2.6936 C.3     1  VEB1       -0.0517
     68 H36        12.3546   -0.7730    1.9826 H       1  VEB1        0.0622
     69 C27         9.8013    0.3511    1.6816 C.3     1  VEB1        0.0151
     70 C28        12.2456   -0.2027    1.0640 C.ar    1  VEB1       -0.0543
     71 H37         7.7175    2.2717    1.8741 H       1  VEB1        0.0622
     72 H38        10.0183    2.4863    2.1981 H       1  VEB1        0.0241
     73 C29         8.4206    0.4178    0.9707 C.ar    1  VEB1       -0.0372
     74 C30         7.4783    1.4303    1.2293 C.ar    1  VEB1       -0.0543
     75 C31        11.0196    0.4065    0.7242 C.ar    1  VEB1       -0.0372
     76 H39        14.2857   -0.6185    0.5249 H       1  VEB1        0.0654
     77 C32        13.3766   -0.0941    0.2440 C.ar    1  VEB1       -0.0197
     78 C33         8.0242   -0.6090    0.0928 C.ar    1  VEB1       -0.0543
     79 C34         6.1771    1.3807    0.7009 C.ar    1  VEB1       -0.0197
     80 H40         8.7173   -1.4074   -0.1672 H       1  VEB1        0.0622
     81 H41         5.4941    2.1864    0.9482 H       1  VEB1        0.0654
     82 C35         6.7236   -0.6584   -0.4313 C.ar    1  VEB1       -0.0197
     83 C36         5.7800    0.3128   -0.0979 C.ar    1  VEB1        0.1206
     84 C37        10.9838    1.1417   -0.4741 C.ar    1  VEB1       -0.0543
     85 H42        15.5685    2.3298   -1.2509 H       1  VEB1        0.0724
     86 C38        13.3211    0.6554   -0.9246 C.ar    1  VEB1        0.1206
     87 H43         6.4373   -1.4857   -1.0764 H       1  VEB1        0.0654
     88 O6          4.5222    0.1204   -0.6070 O.3     1  VEB1       -0.4893
     89 H44        10.0713    1.6443   -0.7886 H       1  VEB1        0.0622
     90 H45        15.7026    0.9386   -0.1505 H       1  VEB1        0.0724
     91 C39        15.5955    1.2351   -1.1998 C.3     1  VEB1        0.1186
     92 C40        12.1172    1.2493   -1.2961 C.ar    1  VEB1       -0.0197
     93 O7         14.3739    0.7553   -1.7925 O.3     1  VEB1       -0.4893
     94 O8         16.9532   -0.7003   -1.7050 O.3     1  VEB1       -0.3850
     95 H46        18.3940    1.1750   -0.6293 H       1  VEB1        0.0725
     96 C41        16.7900    0.6960   -2.0055 C.3     1  VEB1        0.1230
     97 H47        12.0549    1.8057   -2.2273 H       1  VEB1        0.0654
     98 H48        17.8114   -0.9828   -2.0685 H       1  VEB1        0.2101
     99 C42        18.0840    1.4375   -1.6464 C.3     1  VEB1        0.1215
    100 H49        16.5911    0.7639   -3.0809 H       1  VEB1        0.0662
    101 H50        17.9337    2.5206   -1.7011 H       1  VEB1        0.0725
    102 O9         19.1028    1.1167   -2.6245 O.3     1  VEB1       -0.4617
    103 H51        22.4948   -0.8476   -2.2583 H       1  VEB1        0.0237
    104 O10        20.6042    0.6816   -0.9592 O.2     1  VEB1       -0.2506
    105 C43        20.3424    0.8026   -2.1475 C.2     1  VEB1        0.3097
    106 C44        22.6857    0.1382   -2.6945 C.3     1  VEB1       -0.0525
    107 H52        23.1012    0.7532   -1.8863 H       1  VEB1        0.0237
    108 C45        21.4002    0.7717   -3.2689 C.3     1  VEB1        0.0508
    109 H54        23.4694    0.0384   -3.4514 H       1  VEB1        0.0237
    110 C46        21.7190    2.2527   -3.5763 C.3     1  VEB1       -0.0525
    111 H55        21.9190    2.8155   -2.6564 H       1  VEB1        0.0237
    112 H56        20.8782    2.7449   -4.0778 H       1  VEB1        0.0237
    113 H57        22.6036    2.3535   -4.2143 H       1  VEB1        0.0237
    114 H58         3.5911    0.7673    1.1475 H       1  VEB1        0.0724
    115 H59         3.4359    1.8424   -0.2860 H       1  VEB1        0.0724
    116 C         -17.4932   -0.8003   -1.1960 C.ar    1  CRO01      -0.0476
    117 C1        -18.6783   -1.4304   -1.6200 C.ar    1  CRO01      -0.0586
    118 C2        -18.6642   -2.7315   -2.1249 C.ar    1  CRO01      -0.0615
    119 C3        -17.4612   -3.4205   -2.2297 C.ar    1  CRO01      -0.0617
    120 C4        -16.2732   -2.8015   -1.8470 C.ar    1  CRO01      -0.0615
    121 C5        -16.2873   -1.4976   -1.3418 C.ar    1  CRO01      -0.0586
    122 C6        -17.5697    0.6061   -0.6209 C.3     1  CRO01      -0.0305
    123 C7        -16.6224    1.5557   -1.3840 C.3     1  CRO01      -0.0613
    124 H1        -18.5641    0.9572   -0.9397 H       1  CRO01       0.0311
    125 H2        -15.5693    1.2769   -1.2962 H       1  CRO01       0.0233
    126 H3        -16.7241    2.5910   -1.0486 H       1  CRO01       0.0233
    127 H4        -16.8584    1.5411   -2.4555 H       1  CRO01       0.0233
    128 H5        -15.3436   -1.0413   -1.0643 H       1  CRO01       0.0620
    129 H6        -17.4491   -4.4375   -2.6129 H       1  CRO01       0.0618
    130 H7        -15.3322   -3.3379   -1.9403 H       1  CRO01       0.0618
    131 H8        -19.6340   -0.9146   -1.5471 H       1  CRO01       0.0620
    132 H9        -19.5933   -3.2078   -2.4276 H       1  CRO01       0.0618
    133 C         -19.0209   -2.7584    2.2562 C.ar    1  CRO11      -0.0476
    134 C1        -20.1655   -2.8168    1.4389 C.ar    1  CRO11      -0.0586
    135 C2        -21.1902   -3.7409    1.6681 C.ar    1  CRO11      -0.0615
    136 C3        -21.0859   -4.6509    2.7119 C.ar    1  CRO11      -0.0617
    137 C4        -19.9608   -4.6285    3.5275 C.ar    1  CRO11      -0.0615
    138 C5        -18.9438   -3.6919    3.3047 C.ar    1  CRO11      -0.0586
    139 C6        -17.8816   -1.7714    1.9210 C.3     1  CRO11      -0.0305
    140 C7        -16.7268   -1.8379    2.9339 C.3     1  CRO11      -0.0613
    141 H1        -17.4731   -2.1377    0.9807 H       1  CRO11       0.0311
    142 H2        -17.0474   -1.5119    3.9298 H       1  CRO11       0.0233
    143 H3        -15.8785   -1.2252    2.6364 H       1  CRO11       0.0233
    144 H4        -16.3286   -2.8554    3.0162 H       1  CRO11       0.0233
    145 H5        -18.0862   -3.7316    3.9699 H       1  CRO11       0.0620
    146 H6        -21.8726   -5.3799    2.8839 H       1  CRO11       0.0618
    147 H7        -19.8641   -5.3476    4.3370 H       1  CRO11       0.0618
    148 H8        -20.2768   -2.1475    0.5921 H       1  CRO11       0.0620
    149 H9        -22.0625   -3.7543    1.0202 H       1  CRO11       0.0618
    150 C          20.5070   -1.4253   -4.3592 C.ar    1  CRO21      -0.0476
    151 C1         19.1538   -1.7935   -4.2995 C.ar    1  CRO21      -0.0586
    152 C2         18.7795   -3.1278   -4.1272 C.ar    1  CRO21      -0.0615
    153 C3         19.7524   -4.1182   -4.0266 C.ar    1  CRO21      -0.0617
    154 C4         21.0989   -3.7751   -4.1039 C.ar    1  CRO21      -0.0615
    155 C5         21.4730   -2.4402   -4.2727 C.ar    1  CRO21      -0.0586
    156 C6         20.8801    0.0417   -4.5603 C.3     1  CRO21      -0.0305
    157 C7         21.8103    0.1831   -5.7816 C.3     1  CRO21      -0.0613
    158 H1         19.9581    0.5555   -4.8699 H       1  CRO21       0.0311
    159 H2         22.8136   -0.2111   -5.5956 H       1  CRO21       0.0233
    160 H3         21.9116    1.2300   -6.0843 H       1  CRO21       0.0233
    161 H4         21.4017   -0.3567   -6.6445 H       1  CRO21       0.0233
    162 H5         22.5333   -2.2093   -4.3410 H       1  CRO21       0.0620
    163 H6         19.4617   -5.1573   -3.8973 H       1  CRO21       0.0618
    164 H7         21.8610   -4.5475   -4.0371 H       1  CRO21       0.0618
    165 H8         18.3721   -1.0436   -4.4028 H       1  CRO21       0.0620
    166 H9         17.7263   -3.3948   -4.0797 H       1  CRO21       0.0618
@<TRIPOS>BOND
     1   112   110    1
     2   113   110    1
     3   110   111    1
     4   110   108    1
     5   100    96    1
     6   108   105    1
     7   108   106    1
     8    98    94    1
     9    97    92    1
    10   109   106    1
    11   102   105    1
    12   102    99    1
    13    94    96    1
    14    96    99    1
    15    96    91    1
    16   105   104    2
    17   106   107    1
    18   106   103    1
    19    93    91    1
    20    93    86    1
    21   101    99    1
    22    38    33    1
    23    92    86   ar
    24    92    84   ar
    25    99    95    1
    26    87    82    1
    27    89    84    1
    28    91    85    1
    29    91    90    1
    30    86    77   ar
    31    88    83    1
    32    88    36    1
    33    23    18    1
    34    82    83   ar
    35    82    78   ar
    36    84    75   ar
    37    35    32    1
    38    33    36    1
    39    33    32    1
    40    33    37    1
    41    83    79   ar
    42    80    78    1
    43   115    36    1
    44    30    32    1
    45    30    13    1
    46    78    73   ar
    47    36   114    1
    48    58    57    1
    49    46    41    1
    50    32    34    1
    51    22    17    1
    52    39    37    1
    53    18    17   ar
    54    18    19   ar
    55    13    12   ar
    56    13    14   ar
    57    27    12    1
    58    60    57    1
    59    79    81    1
    60    79    74   ar
    61    28    14    1
    62    77    76    1
    63    77    70   ar
    64    75    70   ar
    65    75    69    1
    66    12    11   ar
    67    14    15   ar
    68    73    74   ar
    69    73    69    1
    70    17    16   ar
    71    57    52    1
    72    57    59    1
    73    31    19    1
    74    31    40    1
    75    74    71    1
    76    41    45    1
    77    41    40    1
    78    41    44    1
    79    19    20   ar
    80    70    68    1
    81    47    45    1
    82    11    26    1
    83    11    10   ar
    84    15    29    1
    85    15    10   ar
    86    48    44    1
    87    48    51    1
    88    52    51    1
    89    52    53    1
    90    69    63    1
    91    69    67    1
    92    65    63    1
    93    49    44    1
    94     5     2    1
    95    10     1    1
    96    40    42    1
    97    40    43    1
    98    44    50    1
    99    51    56    2
   100    16     1    1
   101    16    21   ar
   102    72    67    1
   103    63    62    1
   104    63    61    1
   105    54    53    1
   106    20    21   ar
   107    20    24    1
   108     1     2    1
   109     1     6    1
   110    53    55    1
   111    67    66    1
   112    67    64    1
   113     2     3    1
   114     2     4    1
   115    21    25    1
   116     6     8    1
   117     6     7    1
   118     6     9    1
   119   124   122    1
   120   127   123    1
   121   131   117    1
   122   117   116   ar
   123   117   118   ar
   124   122   116    1
   125   122   123    1
   126   126   123    1
   127   132   118    1
   128   116   121   ar
   129   118   119   ar
   130   123   125    1
   131   119   129    1
   132   119   120   ar
   133   121   120   ar
   134   121   128    1
   135   120   130    1
   136   141   139    1
   137   144   140    1
   138   148   134    1
   139   134   133   ar
   140   134   135   ar
   141   139   133    1
   142   139   140    1
   143   143   140    1
   144   149   135    1
   145   133   138   ar
   146   135   136   ar
   147   140   142    1
   148   136   146    1
   149   136   137   ar
   150   138   137   ar
   151   138   145    1
   152   137   147    1
   153   158   156    1
   154   161   157    1
   155   165   151    1
   156   151   150   ar
   157   151   152   ar
   158   156   150    1
   159   156   157    1
   160   160   157    1
   161   166   152    1
   162   150   155   ar
   163   152   153   ar
   164   157   159    1
   165   153   163    1
   166   153   154   ar
   167   155   154   ar
   168   155   162    1
   169   154   164    1
   170   122    52    1
   171   139    53    1
   172   156   108    1
