@<TRIPOS>MOLECULE
*****
  166   172     1     0     0
SMALL
gas


@<TRIPOS>ATOM
      1 C           -8.7120     2.0410     3.0140 c3         1 VEB       0.014613
      2 C1          -8.9060     3.5760     3.1550 c3         1 VEB      -0.051690
      3 H           -8.0480     4.0540     3.6440 hc         1 VEB       0.024275
      4 H1          -9.7870     3.8100     3.7670 hc         1 VEB       0.024275
      5 H2          -9.0450     4.0650     2.1840 hc         1 VEB       0.024275
      6 C2          -8.3120     1.5310     4.4260 c3         1 VEB      -0.051690
      7 H3          -7.3380     1.9320     4.7320 hc         1 VEB       0.024275
      8 H4          -8.2350     0.4380     4.4620 hc         1 VEB       0.024275
      9 H5          -9.0370     1.8400     5.1890 hc         1 VEB       0.024275
     10 C3          -7.5320     1.6550     2.0900 ca         1 VEB      -0.037775
     11 C4          -6.5330     2.5770     1.7260 ca         1 VEB      -0.055555
     12 C5          -5.3890     2.1790     1.0210 ca         1 VEB      -0.031489
     13 C6          -5.2090     0.8450     0.6670 ca         1 VEB       0.075048
     14 C7          -6.2150    -0.0730     0.9610 ca         1 VEB      -0.031489
     15 C8          -7.3570     0.3220     1.6720 ca         1 VEB      -0.055555
     16 C9         -10.0780     1.4940     2.5310 ca         1 VEB      -0.037775
     17 C10        -10.5580     1.8240     1.2470 ca         1 VEB      -0.055555
     18 C11        -11.8500     1.4680     0.8410 ca         1 VEB      -0.031489
     19 C12        -12.6920     0.7870     1.7140 ca         1 VEB       0.075048
     20 C13        -12.2140     0.3800     2.9540 ca         1 VEB      -0.031489
     21 C14        -10.9240     0.7360     3.3610 ca         1 VEB      -0.055555
     22 H6          -9.9330     2.3880     0.5570 ha         1 VEB       0.062690
     23 H7         -12.2040     1.7490    -0.1470 ha         1 VEB       0.065049
     24 H8         -12.8320    -0.2160     3.6190 ha         1 VEB       0.065049
     25 H9         -10.6120     0.4200     4.3530 ha         1 VEB       0.062690
     26 H10         -6.6030     3.6240     2.0070 ha         1 VEB       0.062690
     27 H11         -4.6540     2.9360     0.7700 ha         1 VEB       0.065049
     28 H12         -6.1010    -1.1150     0.6700 ha         1 VEB       0.065049
     29 H13         -8.1000    -0.4330     1.9230 ha         1 VEB       0.062690
     30 O           -4.1010     0.3510     0.0280 os         1 VEB      -0.343341
     31 O1         -13.9610     0.5040     1.2850 os         1 VEB      -0.343341
     32 C15         -2.8720     1.0320     0.3440 c3         1 VEB       0.081548
     33 C16         -1.6900     0.1480    -0.0840 c3         1 VEB       0.101658
     34 H14         -2.8160     1.2060     1.4260 h1         1 VEB       0.060074
     35 H15         -2.8320     1.9840    -0.1970 h1         1 VEB       0.060074
     36 C17         -0.3550     0.8190     0.2790 c3         1 VEB       0.081548
     37 O2          -1.7890    -1.1110     0.6010 oh         1 VEB      -0.388268
     38 H16         -1.7380    -0.0740    -1.1560 h1         1 VEB       0.065008
     39 H17         -2.6910    -1.4420     0.4260 ho         1 VEB       0.210686
     40 C18        -14.9650     1.0040     2.1890 c3         1 VEB       0.081550
     41 C19        -16.3530     0.7590     1.5860 c3         1 VEB       0.101772
     42 H18        -14.8060     2.0810     2.3340 h1         1 VEB       0.060074
     43 H19        -14.8990     0.4850     3.1520 h1         1 VEB       0.060074
     44 C20        -17.4320     1.5500     2.3330 c3         1 VEB       0.084600
     45 O3         -16.6700    -0.6410     1.6780 oh         1 VEB      -0.388266
     46 H20        -16.3600     1.0100     0.5190 h1         1 VEB       0.065010
     47 H21        -17.5630    -0.7420     1.3010 ho         1 VEB       0.210686
     48 O4         -18.6920     1.2970     1.6820 os         1 VEB      -0.312968
     49 H22        -17.2150     2.6230     2.3000 h1         1 VEB       0.060189
     50 H23        -17.5010     1.2080     3.3730 h1         1 VEB       0.060189
     51 C21        -19.7650     1.9150     2.2600 c          1 VEB       0.263739
     52 C22        -21.0360     1.5220     1.5200 c3         1 VEB       0.042887
     53 C23        -21.4360     0.0970     1.9420 c3         1 VEB      -0.034643
     54 H25        -21.7460     0.1090     2.9970 hc         1 VEB       0.028080
     55 H26        -20.5380    -0.5310     1.9150 hc         1 VEB       0.028080
     56 O5         -19.7050     2.6550     3.2290 o          1 VEB      -0.266308
     57 C24        -22.1400     2.5470     1.7650 c3         1 VEB      -0.053052
     58 H27        -20.7870     1.5570     0.4530 hc         1 VEB       0.040667
     59 H28        -21.7920     3.5570     1.5210 hc         1 VEB       0.023855
     60 H29        -22.4550     2.5530     2.8140 hc         1 VEB       0.023855
     61 H30        -23.0180     2.3410     1.1450 hc         1 VEB       0.023855
     62 H31          6.7640    -1.0300     3.6240 hc         1 VEB       0.024275
     63 H32          5.0150    -1.1100     3.4790 hc         1 VEB       0.024275
     64 C25          5.9410    -0.9910     2.9020 c3         1 VEB      -0.051690
     65 H33          5.3050     1.4660     3.8770 hc         1 VEB       0.024275
     66 H34          6.0410    -1.8700     2.2530 hc         1 VEB       0.024275
     67 H35          7.0530     1.3840     3.6710 hc         1 VEB       0.024275
     68 C26          6.1050     1.4770     3.1270 c3         1 VEB      -0.051690
     69 H36          8.5300    -0.6840     2.3880 ha         1 VEB       0.062690
     70 C27          5.9310     0.3360     2.0900 c3         1 VEB       0.014613
     71 C28          8.3960    -0.1180     1.4700 ca         1 VEB      -0.055555
     72 H37          3.8580     2.2710     2.2030 ha         1 VEB       0.062690
     73 H38          6.1110     2.4640     2.6500 hc         1 VEB       0.024275
     74 C29          4.5600     0.3880     1.3630 ca         1 VEB      -0.037775
     75 C30          3.6260     1.4190     1.5700 ca         1 VEB      -0.055555
     76 C31          7.1470     0.4450     1.1360 ca         1 VEB      -0.037775
     77 H39         10.4500    -0.4520     0.9120 ha         1 VEB       0.065049
     78 C32          9.5150     0.0330     0.6410 ca         1 VEB      -0.031489
     79 C33          4.1810    -0.6500     0.4890 ca         1 VEB      -0.055555
     80 C34          2.3480     1.3800     0.9910 ca         1 VEB      -0.031489
     81 H40          4.8730    -1.4580     0.2620 ha         1 VEB       0.062690
     82 H41          1.6710     2.2030     1.1930 ha         1 VEB       0.065049
     83 C35          2.9020    -0.6900    -0.0840 ca         1 VEB      -0.031489
     84 C36          1.9660     0.3040     0.1950 ca         1 VEB       0.075048
     85 C37          7.0740     1.1800    -0.0610 ca         1 VEB      -0.055555
     86 H42         11.6300     2.5370    -1.0750 h1         1 VEB       0.060074
     87 C38          9.4170     0.7760    -0.5290 ca         1 VEB       0.075048
     88 H43          2.6270    -1.5220    -0.7270 ha         1 VEB       0.065049
     89 O6           0.7280     0.1280    -0.3620 os         1 VEB      -0.343341
     90 H44          6.1420     1.6490    -0.3700 ha         1 VEB       0.062690
     91 H45         11.7310     1.3270     0.2260 h1         1 VEB       0.060074
     92 C39         11.6540     1.4630    -0.8590 c3         1 VEB       0.081550
     93 C40          8.1920     1.3270    -0.8920 ca         1 VEB      -0.031489
     94 O7          10.4490     0.9030    -1.4130 os         1 VEB      -0.343341
     95 O8          13.0900    -0.4850    -0.9670 oh         1 VEB      -0.388266
     96 H46         14.4680     1.7040    -0.4240 h1         1 VEB       0.060189
     97 C41         12.8450     0.8030    -1.5610 c3         1 VEB       0.101772
     98 H47          8.1020     1.8770    -1.8250 ha         1 VEB       0.065049
     99 H48         13.8850    -0.8430    -1.4030 ho         1 VEB       0.210686
    100 C42         14.1240     1.6390    -1.4620 c3         1 VEB       0.084611
    101 H49         12.6050     0.6130    -2.6140 h1         1 VEB       0.065010
    102 H50         13.9560     2.6410    -1.8720 h1         1 VEB       0.060189
    103 O9          15.1390     0.9430    -2.2180 os         1 VEB      -0.312729
    104 O10         16.3520     2.8710    -2.3600 o          1 VEB      -0.265950
    105 C43         16.2140     1.6820    -2.6170 c          1 VEB       0.267479
    106 C44         17.6100    -0.3650    -2.4860 c3         1 VEB      -0.031185
    107 H52         16.6950    -0.9270    -2.3100 hc         1 VEB       0.028391
    108 C45         17.2080     0.8200    -3.4390 c3         1 VEB       0.060684
    109 H54         17.8490     0.0510    -1.4950 hc         1 VEB       0.028391
    110 C46         18.4380     1.7180    -3.6970 c3         1 VEB      -0.049575
    111 H55         18.9010     2.0330    -2.7550 hc         1 VEB       0.024164
    112 H56         18.1660     2.6460    -4.2150 hc         1 VEB       0.024164
    113 H57         19.1980     1.2100    -4.2970 hc         1 VEB       0.024164
    114 H58         -0.2350     0.7870     1.3700 h1         1 VEB       0.060074
    115 H59         -0.3510     1.8580    -0.0700 h1         1 VEB       0.060074
    116 C47        -22.8470    -1.9870     1.5560 ca         1 CRO      -0.045162
    117 C50        -24.1730    -2.3830     1.7900 ca         1 CRO      -0.058773
    118 C53        -24.4720    -3.6960     2.1640 ca         1 CRO      -0.061984
    119 C56        -23.4500    -4.6310     2.3100 ca         1 CRO      -0.062248
    120 C59        -22.1300    -4.2560     2.0780 ca         1 CRO      -0.061984
    121 C62        -21.8310    -2.9470     1.6960 ca         1 CRO      -0.058773
    122 C65        -22.5540    -0.5620     1.0990 c3         1 CRO      -0.018269
    123 C68        -22.2420    -0.5720    -0.4010 c3         1 CRO      -0.058391
    124 H24        -23.4670     0.0300     1.2430 hc         1 CRO       0.034961
    125 H60        -21.2670    -1.0270    -0.6060 hc         1 CRO       0.023656
    126 H63        -22.2360     0.4430    -0.8110 hc         1 CRO       0.023656
    127 H66        -22.9980    -1.1370    -0.9590 hc         1 CRO       0.023656
    128 H69        -20.7930    -2.6930     1.4980 ha         1 CRO       0.062571
    129 H72        -23.6830    -5.6530     2.5990 ha         1 CRO       0.062269
    130 H75        -21.3310    -4.9850     2.1850 ha         1 CRO       0.062279
    131 H78        -24.9900    -1.6740     1.6720 ha         1 CRO       0.062571
    132 H81        -25.5040    -3.9900     2.3340 ha         1 CRO       0.062279
    133 C48         18.6140    -2.8000    -2.5480 ca         1 CRO      -0.045151
    134 C51         17.4260    -3.3610    -2.0510 ca         1 CRO      -0.058773
    135 C54         17.3220    -4.7260    -1.7550 ca         1 CRO      -0.061984
    136 C57         18.4070    -5.5700    -1.9450 ca         1 CRO      -0.062248
    137 C60         19.5900    -5.0520    -2.4540 ca         1 CRO      -0.061984
    138 C63         19.6860    -3.6900    -2.7650 ca         1 CRO      -0.058773
    139 C66         18.7820    -1.3070    -2.9020 c3         1 CRO      -0.017979
    140 C69         20.1020    -0.7840    -2.2900 c3         1 CRO      -0.058380
    141 H51         18.8910    -1.2620    -3.9900 hc         1 CRO       0.034972
    142 H61         20.1490    -0.9880    -1.2150 hc         1 CRO       0.023657
    143 H64         20.2330     0.2890    -2.4280 hc         1 CRO       0.023657
    144 H67         20.9760    -1.2510    -2.7570 hc         1 CRO       0.023657
    145 H70         20.6250    -3.3380    -3.1850 ha         1 CRO       0.062571
    146 H73         18.3250    -6.6270    -1.7080 ha         1 CRO       0.062269
    147 H76         20.4430    -5.7060    -2.6150 ha         1 CRO       0.062279
    148 H79         16.5280    -2.7770    -1.8890 ha         1 CRO       0.062571
    149 H82         16.3820    -5.1230    -1.3790 ha         1 CRO       0.062279
    150 C49         16.0470    -1.0360    -4.9510 ca         1 CRO      -0.044104
    151 C52         14.8210    -1.4870    -4.4340 ca         1 CRO      -0.058737
    152 C55         14.4260    -2.8200    -4.5670 ca         1 CRO      -0.061983
    153 C58         15.2470    -3.7250    -5.2320 ca         1 CRO      -0.062248
    154 C61         16.4560    -3.2960    -5.7680 ca         1 CRO      -0.061983
    155 C64         16.8510    -1.9620    -5.6340 ca         1 CRO      -0.058737
    156 C67         16.4430     0.4310    -4.7860 c3         1 CRO      -0.004225
    157 C70         17.0810     0.9740    -6.0810 c3         1 CRO      -0.057363
    158 H53         15.4810     0.9680    -4.7700 hc         1 CRO       0.036050
    159 H62         18.0970     0.5980    -6.2340 hc         1 CRO       0.023692
    160 H65         17.1150     2.0680    -6.0750 hc         1 CRO       0.023692
    161 H68         16.4880     0.6860    -6.9580 hc         1 CRO       0.023692
    162 H71         17.8040    -1.6670    -6.0650 ha         1 CRO       0.062571
    163 H74         14.9450    -4.7640    -5.3330 ha         1 CRO       0.062269
    164 H77         17.1010    -4.0010    -6.2870 ha         1 CRO       0.062279
    165 H80         14.1490    -0.7980    -3.9290 ha         1 CRO       0.062571
    166 H83         13.4760    -3.1490    -4.1560 ha         1 CRO       0.062279
@<TRIPOS>BOND
     1   112   110 1   
     2   113   110 1   
     3   110   111 1   
     4   110   108 1   
     5   101    97 1   
     6   108   105 1   
     7   108   106 1   
     8    99    95 1   
     9    98    93 1   
    10   109   106 1   
    11   103   105 1   
    12   103   100 1   
    13    95    97 1   
    14    97   100 1   
    15    97    92 1   
    16   105   104 2   
    17   106   107 1   
    18    94    92 1   
    19    94    87 1   
    20   102   100 1   
    21    38    33 1   
    22    93    87 ar  
    23    93    85 ar  
    24   100    96 1   
    25    88    83 1   
    26    90    85 1   
    27    92    86 1   
    28    92    91 1   
    29    87    78 ar  
    30    89    84 1   
    31    89    36 1   
    32    23    18 1   
    33    83    84 ar  
    34    83    79 ar  
    35    85    76 ar  
    36    35    32 1   
    37    33    36 1   
    38    33    32 1   
    39    33    37 1   
    40    84    80 ar  
    41    81    79 1   
    42   115    36 1   
    43    30    32 1   
    44    30    13 1   
    45    79    74 ar  
    46    36   114 1   
    47    59    57 1   
    48    46    41 1   
    49    32    34 1   
    50    22    17 1   
    51    39    37 1   
    52    18    17 ar  
    53    18    19 ar  
    54    13    12 ar  
    55    13    14 ar  
    56    27    12 1   
    57    61    57 1   
    58    80    82 1   
    59    80    75 ar  
    60    28    14 1   
    61    78    77 1   
    62    78    71 ar  
    63    76    71 ar  
    64    76    70 1   
    65    12    11 ar  
    66    14    15 ar  
    67    58    52 1   
    68    74    75 ar  
    69    74    70 1   
    70    17    16 ar  
    71    57    52 1   
    72    57    60 1   
    73    31    19 1   
    74    31    40 1   
    75    75    72 1   
    76    41    45 1   
    77    41    40 1   
    78    41    44 1   
    79    19    20 ar  
    80    71    69 1   
    81    47    45 1   
    82    11    26 1   
    83    11    10 ar  
    84    15    29 1   
    85    15    10 ar  
    86    48    44 1   
    87    48    51 1   
    88    52    51 1   
    89    52    53 1   
    90    70    64 1   
    91    70    68 1   
    92    66    64 1   
    93    49    44 1   
    94     5     2 1   
    95    10     1 1   
    96    40    42 1   
    97    40    43 1   
    98    44    50 1   
    99    51    56 2   
   100    16     1 1   
   101    16    21 ar  
   102    73    68 1   
   103    64    63 1   
   104    64    62 1   
   105    54    53 1   
   106    20    21 ar  
   107    20    24 1   
   108     1     2 1   
   109     1     6 1   
   110    53    55 1   
   111    68    67 1   
   112    68    65 1   
   113     2     3 1   
   114     2     4 1   
   115    21    25 1   
   116     6     8 1   
   117     6     7 1   
   118     6     9 1   
   119   124   122 1   
   120   127   123 1   
   121   131   117 1   
   122   117   116 ar  
   123   117   118 ar  
   124   122   116 1   
   125   122   123 1   
   126   126   123 1   
   127   132   118 1   
   128   116   121 ar  
   129   118   119 ar  
   130   123   125 1   
   131   119   129 1   
   132   119   120 ar  
   133   121   120 ar  
   134   121   128 1   
   135   120   130 1   
   136   141   139 1   
   137   144   140 1   
   138   148   134 1   
   139   134   133 ar  
   140   134   135 ar  
   141   139   133 1   
   142   139   140 1   
   143   143   140 1   
   144   149   135 1   
   145   133   138 ar  
   146   135   136 ar  
   147   140   142 1   
   148   136   146 1   
   149   136   137 ar  
   150   138   137 ar  
   151   138   145 1   
   152   137   147 1   
   153   158   156 1   
   154   161   157 1   
   155   165   151 1   
   156   151   150 ar  
   157   151   152 ar  
   158   156   150 1   
   159   156   157 1   
   160   160   157 1   
   161   166   152 1   
   162   150   155 ar  
   163   152   153 ar  
   164   157   159 1   
   165   153   163 1   
   166   153   154 ar  
   167   155   154 ar  
   168   155   162 1   
   169   154   164 1   
   170   122    53 1   
   171   139   106 1   
   172   156   108 1   
@<TRIPOS>SUBSTRUCTURE
     1 VEB         1 TEMP              0 ****  ****    0 ROOT
