@<TRIPOS>MOLECULE
*****
 150 155 0 0 0
SMALL
GASTEIGER

@<TRIPOS>ATOM
      1 C          -7.1090    1.5484    2.5961 C.3     1  VEB1        0.0151
      2 C1         -7.3350    3.0822    2.7075 C.3     1  VEB1       -0.0517
      3 H          -6.5062    3.5828    3.2221 H       1  VEB1        0.0241
      4 H1         -8.2419    3.3089    3.2826 H       1  VEB1        0.0241
      5 H2         -7.4453    3.5543    1.7240 H       1  VEB1        0.0241
      6 C2         -6.7356    1.0689    4.0259 C.3     1  VEB1       -0.0517
      7 H3         -5.7796    1.4972    4.3532 H       1  VEB1        0.0241
      8 H4         -6.6316   -0.0218    4.0785 H       1  VEB1        0.0241
      9 H5         -7.4874    1.3706    4.7651 H       1  VEB1        0.0241
     10 C3         -5.8903    1.1762    1.7133 C.ar    1  VEB1       -0.0372
     11 C4         -4.8702    2.1001    1.4179 C.ar    1  VEB1       -0.0543
     12 C5         -3.6918    1.7133    0.7611 C.ar    1  VEB1       -0.0197
     13 C6         -3.4975    0.3875    0.3867 C.ar    1  VEB1        0.1206
     14 C7         -4.5196   -0.5325    0.6182 C.ar    1  VEB1       -0.0197
     15 C8         -5.6952   -0.1485    1.2823 C.ar    1  VEB1       -0.0543
     16 C9         -8.4544    0.9641    2.0900 C.ar    1  VEB1       -0.0372
     17 C10        -8.9258    1.2749    0.7980 C.ar    1  VEB1       -0.0543
     18 C11       -10.2024    0.8771    0.3706 C.ar    1  VEB1       -0.0197
     19 C12       -11.0383    0.1707    1.2299 C.ar    1  VEB1        0.1206
     20 C13       -10.5665   -0.2146    2.4804 C.ar    1  VEB1       -0.0197
     21 C14        -9.2945    0.1861    2.9087 C.ar    1  VEB1       -0.0543
     22 H6         -8.3061    1.8538    0.1151 H       1  VEB1        0.0622
     23 H7        -10.5463    1.1417   -0.6252 H       1  VEB1        0.0654
     24 H8        -11.1802   -0.8257    3.1362 H       1  VEB1        0.0654
     25 H9         -8.9936   -0.1145    3.9084 H       1  VEB1        0.0622
     26 H10        -4.9491    3.1413    1.7186 H       1  VEB1        0.0622
     27 H11        -2.9433    2.4737    0.5648 H       1  VEB1        0.0654
     28 H12        -4.3941   -1.5684    0.3130 H       1  VEB1        0.0654
     29 H13        -6.4473   -0.9092    1.4860 H       1  VEB1        0.0622
     30 O          -2.3674   -0.1012   -0.2174 O.3     1  VEB1       -0.4893
     31 O1        -12.2911   -0.1768    0.7898 O.3     1  VEB1       -0.4893
     32 C15        -1.1470    0.5957    0.0974 C.3     1  VEB1        0.1186
     33 C16         0.0444   -0.2745   -0.3387 C.3     1  VEB1        0.1229
     34 H14        -1.0916    0.7667    1.1802 H       1  VEB1        0.0724
     35 H15        -1.1200    1.5498   -0.4407 H       1  VEB1        0.0724
     36 C17         1.3826    0.4037    0.0069 C.3     1  VEB1        0.1186
     37 O2         -0.0360   -1.5347    0.3490 O.3     1  VEB1       -0.3850
     38 H16        -0.0125   -0.4998   -1.4094 H       1  VEB1        0.0661
     39 H17        -0.9354   -1.8743    0.1812 H       1  VEB1        0.2101
     40 C18       -13.3218    0.4034    1.6137 C.3     1  VEB1        0.1186
     41 C19       -14.7106   -0.1053    1.1810 C.3     1  VEB1        0.1230
     42 H18       -13.2730    1.4938    1.5015 H       1  VEB1        0.0724
     43 H19       -13.1697    0.1403    2.6672 H       1  VEB1        0.0724
     44 C20       -15.8048    0.7368    1.8510 C.3     1  VEB1        0.1215
     45 O3        -14.8607   -1.4731    1.5895 O.3     1  VEB1       -0.3850
     46 H20       -14.8139   -0.0852    0.0906 H       1  VEB1        0.0662
     47 H21       -15.7850   -1.7192    1.4115 H       1  VEB1        0.2101
     48 O4        -17.1207    0.3187    1.4187 O.3     1  VEB1       -0.4617
     49 H22       -15.6477    1.7913    1.5929 H       1  VEB1        0.0725
     50 H23       -15.7593    0.6075    2.9392 H       1  VEB1        0.0725
     51 C21       -18.0929    1.2058    1.7746 C.2     1  VEB1        0.3097
     52 C22       -19.5200    0.8013    1.3711 C.3     1  VEB1        0.0508
     53 C23       -20.1296    0.0839    2.5936 C.3     1  VEB1       -0.0525
     54 H24       -19.5874   -0.8368    2.8350 H       1  VEB1        0.0237
     55 H25       -21.1847   -0.1620    2.4312 H       1  VEB1        0.0237
     56 H26       -20.0786    0.7150    3.4895 H       1  VEB1        0.0237
     57 O5        -17.8553    2.2219    2.4242 O.2     1  VEB1       -0.2506
     58 C24       -20.3094    2.1316    1.1957 C.3     1  VEB1       -0.0525
     59 H28       -19.8787    2.7487    0.3995 H       1  VEB1        0.0237
     60 H29       -20.3000    2.7349    2.1115 H       1  VEB1        0.0237
     61 H30       -21.3613    1.9437    0.9510 H       1  VEB1        0.0237
     62 H31         8.5079   -1.4092    3.2457 H       1  VEB1        0.0241
     63 H32         6.7576   -1.4383    3.1063 H       1  VEB1        0.0241
     64 C25         7.6846   -1.3642    2.5237 C.3     1  VEB1       -0.0517
     65 H33         7.1416    1.1209    3.4497 H       1  VEB1        0.0241
     66 H34         7.7536   -2.2617    1.8974 H       1  VEB1        0.0241
     67 H35         8.8829    1.0084    3.2111 H       1  VEB1        0.0241
     68 C26         7.9256    1.1030    2.6831 C.3     1  VEB1       -0.0517
     69 H36        10.2505   -1.2327    1.9581 H       1  VEB1        0.0622
     70 C27         7.7151   -0.0586    1.6763 C.3     1  VEB1        0.0151
     71 C28        10.1512   -0.6417    1.0517 C.ar    1  VEB1       -0.0543
     72 H37         5.6364    1.8678    1.8473 H       1  VEB1        0.0622
     73 H38         7.9343    2.0792    2.1831 H       1  VEB1        0.0241
     74 C29         6.3401    0.0081    0.9565 C.ar    1  VEB1       -0.0372
     75 C30         5.4001    1.0253    1.2031 C.ar    1  VEB1       -0.0543
     76 C31         8.9354   -0.0081    0.7222 C.ar    1  VEB1       -0.0372
     77 H39        12.1891   -1.0666    0.5083 H       1  VEB1        0.0654
     78 C32        11.2848   -0.5287    0.2370 C.ar    1  VEB1       -0.0197
     79 C33         5.9492   -1.0203    0.0779 C.ar    1  VEB1       -0.0543
     80 C34         4.1053    0.9794    0.6609 C.ar    1  VEB1       -0.0197
     81 H40         6.6423   -1.8215   -0.1730 H       1  VEB1        0.0622
     82 H41         3.4233    1.7892    0.8976 H       1  VEB1        0.0654
     83 C35         4.6544   -1.0663   -0.4595 C.ar    1  VEB1       -0.0197
     84 C36         3.7126   -0.0898   -0.1387 C.ar    1  VEB1        0.1206
     85 C37         8.9106    0.7508   -0.4624 C.ar    1  VEB1       -0.0543
     86 H42        13.4575    1.9561   -1.1903 H       1  VEB1        0.0724
     87 C38        11.2416    0.2489   -0.9140 C.ar    1  VEB1        0.1206
     88 H43         4.3711   -1.8942   -1.1051 H       1  VEB1        0.0654
     89 O6          2.4590   -0.2774   -0.6594 O.3     1  VEB1       -0.4893
     90 H44         8.0045    1.2704   -0.7680 H       1  VEB1        0.0622
     91 H45        13.5958    0.5576   -0.0989 H       1  VEB1        0.0724
     92 C39        13.5046    0.8616   -1.1477 C.3     1  VEB1        0.1186
     93 C40        10.0467    0.8630   -1.2789 C.ar    1  VEB1       -0.0197
     94 O7         12.3050    0.3612   -1.7676 O.3     1  VEB1       -0.4893
     95 O8         14.8927   -1.0496   -1.6644 O.3     1  VEB1       -0.3850
     96 H46        16.2748    0.7869   -0.4884 H       1  VEB1        0.0725
     97 C41        14.7263    0.3538   -1.9309 C.3     1  VEB1        0.1230
     98 H47         9.9944    1.4400   -2.1980 H       1  VEB1        0.0654
     99 H48        15.7610   -1.3127   -2.0188 H       1  VEB1        0.2101
    100 C42        16.0026    1.0902   -1.5056 C.3     1  VEB1        0.1215
    101 H49        14.5614    0.4506   -3.0098 H       1  VEB1        0.0662
    102 H50        15.8521    2.1742   -1.5360 H       1  VEB1        0.0725
    103 O9         17.0589    0.7851   -2.4470 O.3     1  VEB1       -0.4617
    104 H51        20.5039   -0.8517   -1.8939 H       1  VEB1        0.0237
    105 O10        18.5708    0.8660   -0.7394 O.2     1  VEB1       -0.2506
    106 C43        18.3205    0.7402   -1.9337 C.2     1  VEB1        0.3097
    107 C44        20.6882    0.1137   -2.3763 C.3     1  VEB1       -0.0525
    108 H52        21.0630    0.7799   -1.5891 H       1  VEB1        0.0237
    109 C45        19.4076    0.6831   -3.0242 C.3     1  VEB1        0.0508
    110 H54        21.4992   -0.0055   -3.1006 H       1  VEB1        0.0237
    111 C46        19.6900    2.1602   -3.3841 C.3     1  VEB1       -0.0525
    112 H55        19.8446    2.7683   -2.4843 H       1  VEB1        0.0237
    113 H56        18.8488    2.6026   -3.9295 H       1  VEB1        0.0237
    114 H57        20.5907    2.2638   -3.9985 H       1  VEB1        0.0237
    115 H58         1.5236    0.3649    1.0946 H       1  VEB1        0.0724
    116 H59         1.3742    1.4447   -0.3360 H       1  VEB1        0.0724
    117 C         -19.7922   -1.5258    0.1725 C.ar    1  CRO01      -0.0476
    118 C1        -21.0668   -2.1237    0.2111 C.ar    1  CRO01      -0.0586
    119 C2        -21.2129   -3.5037    0.3587 C.ar    1  CRO01      -0.0615
    120 C3        -20.0862   -4.3110    0.4712 C.ar    1  CRO01      -0.0617
    121 C4        -18.8170   -3.7378    0.4291 C.ar    1  CRO01      -0.0615
    122 C5        -18.6708   -2.3557    0.2768 C.ar    1  CRO01      -0.0586
    123 C6        -19.6881   -0.0100    0.0323 C.3     1  CRO01      -0.0305
    124 C7        -18.7389    0.4087   -1.1029 C.3     1  CRO01      -0.0613
    125 H1        -20.6754    0.2792   -0.3618 H       1  CRO01       0.0311
    126 H2        -17.7086    0.0798   -0.9460 H       1  CRO01       0.0233
    127 H3        -18.7311    1.4950   -1.2333 H       1  CRO01       0.0233
    128 H4        -19.0675   -0.0323   -2.0518 H       1  CRO01       0.0233
    129 H5        -17.6700   -1.9420    0.2333 H       1  CRO01       0.0620
    130 H6        -20.1967   -5.3859    0.5878 H       1  CRO01       0.0618
    131 H7        -17.9370   -4.3709    0.5118 H       1  CRO01       0.0618
    132 H8        -21.9648   -1.5136    0.1298 H       1  CRO01       0.0620
    133 H9        -22.2058   -3.9454    0.3863 H       1  CRO01       0.0618
    134 C          18.6335   -1.5862   -4.0771 C.ar    1  CRO11      -0.0476
    135 C1         17.2955   -2.0097   -4.1117 C.ar    1  CRO11      -0.0586
    136 C2         16.9610   -3.3526   -3.9244 C.ar    1  CRO11      -0.0615
    137 C3         17.9610   -4.2978   -3.7161 C.ar    1  CRO11      -0.0617
    138 C4         19.2949   -3.9013   -3.7024 C.ar    1  CRO11      -0.0615
    139 C5         19.6285   -2.5575   -3.8862 C.ar    1  CRO11      -0.0586
    140 C6         18.9626   -0.1124   -4.3063 C.3     1  CRO11      -0.0305
    141 C7         19.9352    0.0173   -5.4965 C.3     1  CRO11      -0.0613
    142 H1         18.0375    0.3604   -4.6680 H       1  CRO11       0.0311
    143 H2         20.9426   -0.3359   -5.2575 H       1  CRO11       0.0233
    144 H3         20.0140    1.0551   -5.8347 H       1  CRO11       0.0233
    145 H4         19.5792   -0.5668   -6.3539 H       1  CRO11       0.0233
    146 H5         20.6815   -2.2865   -3.8878 H       1  CRO11       0.0620
    147 H6         17.7021   -5.3439   -3.5760 H       1  CRO11       0.0618
    148 H7         20.0794   -4.6394   -3.5550 H       1  CRO11       0.0618
    149 H8         16.4958   -1.2963   -4.3014 H       1  CRO11       0.0620
    150 H9         15.9187   -3.6617   -3.9505 H       1  CRO11       0.0618
@<TRIPOS>BOND
     1   113   111    1
     2   114   111    1
     3   111   112    1
     4   111   109    1
     5   101    97    1
     6   109   106    1
     7   109   107    1
     8    99    95    1
     9    98    93    1
    10   110   107    1
    11   103   106    1
    12   103   100    1
    13    95    97    1
    14    97   100    1
    15    97    92    1
    16   106   105    2
    17   107   108    1
    18   107   104    1
    19    94    92    1
    20    94    87    1
    21   102   100    1
    22    38    33    1
    23    93    87   ar
    24    93    85   ar
    25   100    96    1
    26    88    83    1
    27    90    85    1
    28    92    86    1
    29    92    91    1
    30    87    78   ar
    31    89    84    1
    32    89    36    1
    33    23    18    1
    34    83    84   ar
    35    83    79   ar
    36    85    76   ar
    37    35    32    1
    38    33    36    1
    39    33    32    1
    40    33    37    1
    41    84    80   ar
    42    81    79    1
    43   116    36    1
    44    30    32    1
    45    30    13    1
    46    79    74   ar
    47    36   115    1
    48    59    58    1
    49    46    41    1
    50    32    34    1
    51    22    17    1
    52    39    37    1
    53    18    17   ar
    54    18    19   ar
    55    13    12   ar
    56    13    14   ar
    57    27    12    1
    58    61    58    1
    59    80    82    1
    60    80    75   ar
    61    28    14    1
    62    78    77    1
    63    78    71   ar
    64    76    71   ar
    65    76    70    1
    66    12    11   ar
    67    14    15   ar
    68    74    75   ar
    69    74    70    1
    70    17    16   ar
    71    58    52    1
    72    58    60    1
    73    31    19    1
    74    31    40    1
    75    75    72    1
    76    41    45    1
    77    41    40    1
    78    41    44    1
    79    19    20   ar
    80    71    69    1
    81    47    45    1
    82    11    26    1
    83    11    10   ar
    84    15    29    1
    85    15    10   ar
    86    48    44    1
    87    48    51    1
    88    52    51    1
    89    52    53    1
    90    70    64    1
    91    70    68    1
    92    66    64    1
    93    49    44    1
    94     5     2    1
    95    10     1    1
    96    40    42    1
    97    40    43    1
    98    44    50    1
    99    51    57    2
   100    16     1    1
   101    16    21   ar
   102    73    68    1
   103    64    63    1
   104    64    62    1
   105    55    53    1
   106    20    21   ar
   107    20    24    1
   108     1     2    1
   109     1     6    1
   110    53    54    1
   111    53    56    1
   112    68    67    1
   113    68    65    1
   114     2     3    1
   115     2     4    1
   116    21    25    1
   117     6     8    1
   118     6     7    1
   119     6     9    1
   120   125   123    1
   121   128   124    1
   122   132   118    1
   123   118   117   ar
   124   118   119   ar
   125   123   117    1
   126   123   124    1
   127   127   124    1
   128   133   119    1
   129   117   122   ar
   130   119   120   ar
   131   124   126    1
   132   120   130    1
   133   120   121   ar
   134   122   121   ar
   135   122   129    1
   136   121   131    1
   137   142   140    1
   138   145   141    1
   139   149   135    1
   140   135   134   ar
   141   135   136   ar
   142   140   134    1
   143   140   141    1
   144   144   141    1
   145   150   136    1
   146   134   139   ar
   147   136   137   ar
   148   141   143    1
   149   137   147    1
   150   137   138   ar
   151   139   138   ar
   152   139   146    1
   153   138   148    1
   154   123    52    1
   155   140   109    1
