@<TRIPOS>MOLECULE
*****
 182 189 0 0 0
SMALL
GASTEIGER

@<TRIPOS>ATOM
      1 C          -6.9263    2.3116    3.0171 C.3     1  VEB1        0.0151
      2 C1         -7.1256    3.8457    3.1563 C.3     1  VEB1       -0.0517
      3 H          -6.2867    4.3226    3.6768 H       1  VEB1        0.0241
      4 H1         -8.0267    4.0784    3.7382 H       1  VEB1        0.0241
      5 H2         -7.2329    4.3346    2.1806 H       1  VEB1        0.0241
      6 C2         -6.5749    1.7917    4.4387 C.3     1  VEB1       -0.0517
      7 H3         -5.5985    2.1671    4.7708 H       1  VEB1        0.0241
      8 H4         -6.5276    0.6964    4.4732 H       1  VEB1        0.0241
      9 H5         -7.3075    2.1188    5.1861 H       1  VEB1        0.0241
     10 C3         -5.7041    1.9340    2.1396 C.ar    1  VEB1       -0.0372
     11 C4         -4.6813    2.8548    1.8434 C.ar    1  VEB1       -0.0543
     12 C5         -3.4991    2.4623    1.1969 C.ar    1  VEB1       -0.0197
     13 C6         -3.3035    1.1338    0.8329 C.ar    1  VEB1        0.1206
     14 C7         -4.3294    0.2170    1.0617 C.ar    1  VEB1       -0.0197
     15 C8         -5.5091    0.6067    1.7158 C.ar    1  VEB1       -0.0543
     16 C9         -8.2802    1.7692    2.4888 C.ar    1  VEB1       -0.0372
     17 C10        -8.6858    2.0200    1.1641 C.ar    1  VEB1       -0.0543
     18 C11        -9.9623    1.6497    0.7089 C.ar    1  VEB1       -0.0197
     19 C12       -10.8741    1.0395    1.5685 C.ar    1  VEB1        0.1206
     20 C13       -10.4733    0.7353    2.8656 C.ar    1  VEB1       -0.0197
     21 C14        -9.1977    1.1010    3.3203 C.ar    1  VEB1       -0.0543
     22 H6         -8.0142    2.5263    0.4728 H       1  VEB1        0.0622
     23 H7        -10.2485    1.8615   -0.3180 H       1  VEB1        0.0654
     24 H8        -11.1263    0.1999    3.5471 H       1  VEB1        0.0654
     25 H9         -8.9551    0.8585    4.3513 H       1  VEB1        0.0622
     26 H10        -4.7604    3.8983    2.1360 H       1  VEB1        0.0622
     27 H11        -2.7481    3.2203    1.0008 H       1  VEB1        0.0654
     28 H12        -4.2035   -0.8207    0.7631 H       1  VEB1        0.0654
     29 H13        -6.2645   -0.1509    1.9188 H       1  VEB1        0.0622
     30 O          -2.1686    0.6404    0.2415 O.3     1  VEB1       -0.4893
     31 O1        -12.1054    0.7224    1.0515 O.3     1  VEB1       -0.4893
     32 C15        -0.9495    1.3352    0.5676 C.3     1  VEB1        0.1186
     33 C16         0.2448    0.4596    0.1509 C.3     1  VEB1        0.1229
     34 H14        -0.9068    1.5116    1.6502 H       1  VEB1        0.0724
     35 H15        -0.9130    2.2865    0.0252 H       1  VEB1        0.0724
     36 C17         1.5814    1.1336    0.5116 C.3     1  VEB1        0.1186
     37 O2          0.1508   -0.7980    0.8417 O.3     1  VEB1       -0.3850
     38 H16         0.2015    0.2305   -0.9198 H       1  VEB1        0.0661
     39 H17        -0.7469   -1.1357    0.6618 H       1  VEB1        0.2101
     40 C18       -13.2075    1.0104    1.9318 C.3     1  VEB1        0.1186
     41 C19       -14.5414    0.6228    1.2630 C.3     1  VEB1        0.1230
     42 H18       -13.1996    2.0848    2.1540 H       1  VEB1        0.0724
     43 H19       -13.1151    0.4382    2.8610 H       1  VEB1        0.0724
     44 C20       -15.7194    1.2169    2.0458 C.3     1  VEB1        0.1215
     45 O3        -14.6675   -0.8085    1.2629 O.3     1  VEB1       -0.3850
     46 H20       -14.5658    0.9431    0.2159 H       1  VEB1        0.0662
     47 H21       -15.5760   -1.0135    0.9801 H       1  VEB1        0.2101
     48 O4        -16.9725    0.8877    1.4007 O.3     1  VEB1       -0.4617
     49 H22       -15.6218    2.3082    2.0912 H       1  VEB1        0.0725
     50 H23       -15.7305    0.7989    3.0601 H       1  VEB1        0.0725
     51 C21       -18.0529    1.3848    2.0647 C.2     1  VEB1        0.3097
     52 C22       -19.4047    1.1281    1.3844 C.3     1  VEB1        0.0508
     53 C23       -20.2274    0.0438    2.1825 C.3     1  VEB1       -0.0525
     54 H25       -21.2193    0.0282    1.7168 H       1  VEB1        0.0237
     55 H26       -20.4128    0.4261    3.1980 H       1  VEB1        0.0237
     56 O5        -17.9548    1.9700    3.1408 O.2     1  VEB1       -0.2506
     57 C24       -20.1963    2.4672    1.6335 C.3     1  VEB1       -0.0525
     58 H28       -19.6701    3.3352    1.2228 H       1  VEB1        0.0237
     59 H29       -20.3361    2.6648    2.7035 H       1  VEB1        0.0237
     60 H30       -21.1966    2.4312    1.1861 H       1  VEB1        0.0237
     61 H31         8.7923   -0.6959    3.7044 H       1  VEB1        0.0241
     62 H32         7.0418   -0.7825    3.5908 H       1  VEB1        0.0241
     63 C25         7.9560   -0.6555    2.9972 C.3     1  VEB1       -0.0517
     64 H33         7.3312    1.7885    4.0059 H       1  VEB1        0.0241
     65 H34         8.0479   -1.5282    2.3398 H       1  VEB1        0.0241
     66 H35         9.0747    1.7221    3.7608 H       1  VEB1        0.0241
     67 C26         8.1140    1.8119    3.2382 C.3     1  VEB1       -0.0517
     68 H36        10.5326   -0.3407    2.4392 H       1  VEB1        0.0622
     69 C27         7.9259    0.6783    2.1959 C.3     1  VEB1        0.0151
     70 C28        10.3836    0.2375    1.5311 C.ar    1  VEB1       -0.0543
     71 H37         5.8303    2.5856    2.3889 H       1  VEB1        0.0622
     72 H38         8.1012    2.8032    2.7691 H       1  VEB1        0.0241
     73 C29         6.5384    0.7286    1.4968 C.ar    1  VEB1       -0.0372
     74 C30         5.5949    1.7419    1.7459 C.ar    1  VEB1       -0.0543
     75 C31         9.1266    0.7997    1.2236 C.ar    1  VEB1       -0.0372
     76 H39        12.4300   -0.0828    0.9425 H       1  VEB1        0.0654
     77 C32        11.4921    0.4045    0.6894 C.ar    1  VEB1       -0.0197
     78 C33         6.1497   -0.2992    0.6162 C.ar    1  VEB1       -0.0543
     79 C34         4.3008    1.6947    1.2013 C.ar    1  VEB1       -0.0197
     80 H40         6.8461   -1.0952    0.3584 H       1  VEB1        0.0622
     81 H41         3.6175    2.5036    1.4375 H       1  VEB1        0.0654
     82 C35         4.8559   -0.3468    0.0768 C.ar    1  VEB1       -0.0197
     83 C36         3.9121    0.6282    0.3961 C.ar    1  VEB1        0.1206
     84 C37         9.0350    1.5502    0.0381 C.ar    1  VEB1       -0.0543
     85 H42        13.7002    2.8490   -1.0501 H       1  VEB1        0.0724
     86 C38        11.3765    1.1633   -0.4683 C.ar    1  VEB1        0.1206
     87 H43         4.5763   -1.1724   -0.5732 H       1  VEB1        0.0654
     88 O6          2.6627    0.4419   -0.1347 O.3     1  VEB1       -0.4893
     89 H44         8.0977    2.0206   -0.2517 H       1  VEB1        0.0622
     90 H45        13.7206    1.6483    0.2569 H       1  VEB1        0.0724
     91 C39        13.6427    1.7775   -0.8285 C.3     1  VEB1        0.1186
     92 C40        10.1426    1.7132   -0.8051 C.ar    1  VEB1       -0.0197
     93 O7         12.3901    1.3189   -1.3692 O.3     1  VEB1       -0.4893
     94 O8         14.9438   -0.2648   -0.9288 O.3     1  VEB1       -0.3850
     95 H46        16.4843    1.8231   -0.4553 H       1  VEB1        0.0725
     96 C41        14.7728    1.0257   -1.5418 C.3     1  VEB1        0.1230
     97 H47        10.0376    2.2781   -1.7274 H       1  VEB1        0.0654
     98 H48        15.7000   -0.6839   -1.3800 H       1  VEB1        0.2101
     99 C42        16.1070    1.7764   -1.4825 C.3     1  VEB1        0.1215
    100 H49        14.5011    0.8346   -2.5866 H       1  VEB1        0.0662
    101 H50        15.9933    2.7855   -1.8930 H       1  VEB1        0.0725
    102 O9         17.0524    1.0112   -2.2624 O.3     1  VEB1       -0.4617
    103 O10        18.3561    2.8718   -2.5012 O.2     1  VEB1       -0.2506
    104 C43        18.1407    1.6892   -2.7308 C.2     1  VEB1        0.3097
    105 C44        19.3749   -0.4674   -2.6994 C.3     1  VEB1       -0.0525
    106 H52        18.4399   -1.0095   -2.5647 H       1  VEB1        0.0237
    107 C45        19.0289    0.7703   -3.6092 C.3     1  VEB1        0.0508
    108 H54        19.6153   -0.1032   -1.6889 H       1  VEB1        0.0237
    109 C46        20.3111    1.5728   -3.9159 C.3     1  VEB1       -0.0525
    110 H55        20.8365    1.8421   -2.9925 H       1  VEB1        0.0237
    111 H56        20.0931    2.5242   -4.4138 H       1  VEB1        0.0237
    112 H57        21.0019    1.0130   -4.5536 H       1  VEB1        0.0237
    113 H58         1.7069    1.1009    1.6013 H       1  VEB1        0.0724
    114 H59         1.5835    2.1723    0.1619 H       1  VEB1        0.0724
    115 C         -19.3171   -0.4537   -0.7632 C.ar    1  CRO01      -0.0476
    116 C1        -20.5016   -1.0881   -1.1822 C.ar    1  CRO01      -0.0586
    117 C2        -20.4856   -2.3901   -1.6844 C.ar    1  CRO01      -0.0615
    118 C3        -19.2810   -3.0760   -1.7916 C.ar    1  CRO01      -0.0617
    119 C4        -18.0936   -2.4529   -1.4139 C.ar    1  CRO01      -0.0615
    120 C5        -18.1097   -1.1481   -0.9113 C.ar    1  CRO01      -0.0586
    121 C6        -19.3960    0.9544   -0.1924 C.3     1  CRO01      -0.0305
    122 C7        -18.4475    1.9032   -0.9553 C.3     1  CRO01      -0.0613
    123 H1        -20.3899    1.3037   -0.5148 H       1  CRO01       0.0311
    124 H2        -17.3941    1.6272   -0.8615 H       1  CRO01       0.0233
    125 H3        -18.5529    2.9394   -0.6240 H       1  CRO01       0.0233
    126 H4        -18.6787    1.8841   -2.0277 H       1  CRO01       0.0233
    127 H5        -17.1662   -0.6889   -0.6377 H       1  CRO01       0.0620
    128 H6        -19.2674   -4.0936   -2.1729 H       1  CRO01       0.0618
    129 H7        -17.1514   -2.9870   -1.5091 H       1  CRO01       0.0618
    130 H8        -21.4585   -0.5745   -1.1080 H       1  CRO01       0.0620
    131 H9        -21.4143   -2.8695   -1.9832 H       1  CRO01       0.0618
    132 C         -20.8287   -2.4172    2.6768 C.ar    1  CRO11      -0.0476
    133 C1        -21.9799   -2.4641    1.8682 C.ar    1  CRO11      -0.0586
    134 C2        -22.9972   -3.3999    2.0841 C.ar    1  CRO11      -0.0615
    135 C3        -22.8787   -4.3344    3.1044 C.ar    1  CRO11      -0.0617
    136 C4        -21.7458   -4.3260    3.9090 C.ar    1  CRO11      -0.0615
    137 C5        -20.7362   -3.3783    3.6994 C.ar    1  CRO11      -0.0586
    138 C6        -19.6962   -1.4149    2.3607 C.3     1  CRO11      -0.0305
    139 C7        -18.5605   -1.4674    3.3969 C.3     1  CRO11      -0.0613
    140 H1        -19.2657   -1.7747    1.4277 H       1  CRO11       0.0311
    141 H2        -18.9110   -1.1680    4.3911 H       1  CRO11       0.0233
    142 H3        -17.7232   -0.8265    3.1303 H       1  CRO11       0.0233
    143 H4        -18.1362   -2.4750    3.4699 H       1  CRO11       0.0233
    144 H5        -19.8718   -3.4316    4.3547 H       1  CRO11       0.0620
    145 H6        -23.6599   -5.0715    3.2660 H       1  CRO11       0.0618
    146 H7        -21.6371   -5.0642    4.6995 H       1  CRO11       0.0618
    147 H8        -22.1043   -1.7770    1.0380 H       1  CRO11       0.0620
    148 H9        -23.8752   -3.4028    1.4437 H       1  CRO11       0.0618
    149 C          20.3055   -2.9255   -2.8487 C.ar    1  CRO21      -0.0476
    150 C1         19.1784   -3.4484   -2.1952 C.ar    1  CRO21      -0.0586
    151 C2         19.0379   -4.8223   -1.9653 C.ar    1  CRO21      -0.0615
    152 C3         20.0322   -5.7068   -2.3642 C.ar    1  CRO21      -0.0617
    153 C4         21.1598   -5.2192   -3.0129 C.ar    1  CRO21      -0.0615
    154 C5         21.2856   -3.8492   -3.2661 C.ar    1  CRO21      -0.0586
    155 C6         20.5202   -1.4291   -3.1411 C.3     1  CRO21      -0.0305
    156 C7         21.8523   -0.9941   -2.4919 C.3     1  CRO21      -0.0613
    157 H1         20.6385   -1.3442   -4.2267 H       1  CRO21       0.0311
    158 H2         21.8582   -1.2092   -1.4174 H       1  CRO21       0.0233
    159 H3         22.0505    0.0711   -2.6174 H       1  CRO21       0.0233
    160 H4         22.7077   -1.5138   -2.9371 H       1  CRO21       0.0233
    161 H5         22.1741   -3.5093   -3.7934 H       1  CRO21       0.0620
    162 H6         19.9256   -6.7706   -2.1724 H       1  CRO21       0.0618
    163 H7         21.9440   -5.9034   -3.3257 H       1  CRO21       0.0618
    164 H8         18.3668   -2.8200   -1.8473 H       1  CRO21       0.0620
    165 H9         18.1449   -5.1960   -1.4707 H       1  CRO21       0.0618
    166 C          17.7643   -0.9885   -5.1428 C.ar    1  CRO31      -0.0476
    167 C1         16.5704   -1.4711   -4.5780 C.ar    1  CRO31      -0.0586
    168 C2         16.1739   -2.7975   -4.7561 C.ar    1  CRO31      -0.0615
    169 C3         16.9599   -3.6624   -5.5107 C.ar    1  CRO31      -0.0617
    170 C4         18.1376   -3.1993   -6.0907 C.ar    1  CRO31      -0.0615
    171 C5         18.5355   -1.8722   -5.9115 C.ar    1  CRO31      -0.0586
    172 C6         18.1648    0.4670   -4.9163 C.3     1  CRO31      -0.0305
    173 C7         18.6983    1.1005   -6.2170 C.3     1  CRO31      -0.0613
    174 H1         17.2035    0.9905   -4.7944 H       1  CRO31       0.0311
    175 H2         19.6972    0.7385   -6.4788 H       1  CRO31       0.0233
    176 H3         18.7368    2.1917   -6.1342 H       1  CRO31       0.0233
    177 H4         18.0353    0.8740   -7.0609 H       1  CRO31       0.0233
    178 H5         19.4645   -1.5489   -6.3735 H       1  CRO31       0.0620
    179 H6         16.6571   -4.6970   -5.6464 H       1  CRO31       0.0618
    180 H7         18.7540   -3.8751   -6.6778 H       1  CRO31       0.0618
    181 H8         15.9329   -0.8143   -3.9920 H       1  CRO31       0.0620
    182 H9         15.2512   -3.1546   -4.3060 H       1  CRO31       0.0618
@<TRIPOS>BOND
     1   111   109    1
     2   112   109    1
     3   109   110    1
     4   109   107    1
     5   100    96    1
     6   107   104    1
     7   107   105    1
     8    98    94    1
     9    97    92    1
    10   108   105    1
    11   102   104    1
    12   102    99    1
    13    94    96    1
    14    96    99    1
    15    96    91    1
    16   104   103    2
    17   105   106    1
    18    93    91    1
    19    93    86    1
    20   101    99    1
    21    38    33    1
    22    92    86   ar
    23    92    84   ar
    24    99    95    1
    25    87    82    1
    26    89    84    1
    27    91    85    1
    28    91    90    1
    29    86    77   ar
    30    88    83    1
    31    88    36    1
    32    23    18    1
    33    82    83   ar
    34    82    78   ar
    35    84    75   ar
    36    35    32    1
    37    33    36    1
    38    33    32    1
    39    33    37    1
    40    83    79   ar
    41    80    78    1
    42   114    36    1
    43    30    32    1
    44    30    13    1
    45    78    73   ar
    46    36   113    1
    47    58    57    1
    48    46    41    1
    49    32    34    1
    50    22    17    1
    51    39    37    1
    52    18    17   ar
    53    18    19   ar
    54    13    12   ar
    55    13    14   ar
    56    27    12    1
    57    60    57    1
    58    79    81    1
    59    79    74   ar
    60    28    14    1
    61    77    76    1
    62    77    70   ar
    63    75    70   ar
    64    75    69    1
    65    12    11   ar
    66    14    15   ar
    67    73    74   ar
    68    73    69    1
    69    17    16   ar
    70    57    52    1
    71    57    59    1
    72    31    19    1
    73    31    40    1
    74    74    71    1
    75    41    45    1
    76    41    40    1
    77    41    44    1
    78    19    20   ar
    79    70    68    1
    80    47    45    1
    81    11    26    1
    82    11    10   ar
    83    15    29    1
    84    15    10   ar
    85    48    44    1
    86    48    51    1
    87    52    51    1
    88    52    53    1
    89    69    63    1
    90    69    67    1
    91    65    63    1
    92    49    44    1
    93     5     2    1
    94    10     1    1
    95    40    42    1
    96    40    43    1
    97    44    50    1
    98    51    56    2
    99    16     1    1
   100    16    21   ar
   101    72    67    1
   102    63    62    1
   103    63    61    1
   104    54    53    1
   105    20    21   ar
   106    20    24    1
   107     1     2    1
   108     1     6    1
   109    53    55    1
   110    67    66    1
   111    67    64    1
   112     2     3    1
   113     2     4    1
   114    21    25    1
   115     6     8    1
   116     6     7    1
   117     6     9    1
   118   123   121    1
   119   126   122    1
   120   130   116    1
   121   116   115   ar
   122   116   117   ar
   123   121   115    1
   124   121   122    1
   125   125   122    1
   126   131   117    1
   127   115   120   ar
   128   117   118   ar
   129   122   124    1
   130   118   128    1
   131   118   119   ar
   132   120   119   ar
   133   120   127    1
   134   119   129    1
   135   140   138    1
   136   143   139    1
   137   147   133    1
   138   133   132   ar
   139   133   134   ar
   140   138   132    1
   141   138   139    1
   142   142   139    1
   143   148   134    1
   144   132   137   ar
   145   134   135   ar
   146   139   141    1
   147   135   145    1
   148   135   136   ar
   149   137   136   ar
   150   137   144    1
   151   136   146    1
   152   157   155    1
   153   160   156    1
   154   164   150    1
   155   150   149   ar
   156   150   151   ar
   157   155   149    1
   158   155   156    1
   159   159   156    1
   160   165   151    1
   161   149   154   ar
   162   151   152   ar
   163   156   158    1
   164   152   162    1
   165   152   153   ar
   166   154   153   ar
   167   154   161    1
   168   153   163    1
   169   174   172    1
   170   177   173    1
   171   181   167    1
   172   167   166   ar
   173   167   168   ar
   174   172   166    1
   175   172   173    1
   176   176   173    1
   177   182   168    1
   178   166   171   ar
   179   168   169   ar
   180   173   175    1
   181   169   179    1
   182   169   170   ar
   183   171   170   ar
   184   171   178    1
   185   170   180    1
   186   121    52    1
   187   138    53    1
   188   155   105    1
   189   172   107    1
