@<TRIPOS>MOLECULE
*****
 150 155 0 0 0
SMALL
GASTEIGER

@<TRIPOS>ATOM
      1 C          -6.9607    1.7287    2.4811 C.3     1  VEB1        0.0151
      2 C1         -7.1557    3.2650    2.6158 C.3     1  VEB1       -0.0517
      3 H          -6.3030    3.7444    3.1107 H       1  VEB1        0.0241
      4 H1         -8.0419    3.5010    3.2190 H       1  VEB1        0.0241
      5 H2         -7.2873    3.7503    1.6412 H       1  VEB1        0.0241
      6 C2         -6.5674    1.2242    3.8963 C.3     1  VEB1       -0.0517
      7 H3         -5.5944    1.6264    4.2058 H       1  VEB1        0.0241
      8 H4         -6.4893    0.1308    3.9353 H       1  VEB1        0.0241
      9 H5         -7.2951    1.5352    4.6554 H       1  VEB1        0.0241
     10 C3         -5.7740    1.3419    1.5644 C.ar    1  VEB1       -0.0372
     11 C4         -4.7652    2.2595    1.2199 C.ar    1  VEB1       -0.0543
     12 C5         -3.6135    1.8600    0.5270 C.ar    1  VEB1       -0.0197
     13 C6         -3.4354    0.5277    0.1662 C.ar    1  VEB1        0.1206
     14 C7         -4.4510   -0.3864    0.4422 C.ar    1  VEB1       -0.0197
     15 C8         -5.6007    0.0109    1.1413 C.ar    1  VEB1       -0.0543
     16 C9         -8.3260    1.1811    1.9954 C.ar    1  VEB1       -0.0372
     17 C10        -8.8045    1.5089    0.7110 C.ar    1  VEB1       -0.0543
     18 C11       -10.0987    1.1572    0.3060 C.ar    1  VEB1       -0.0197
     19 C12       -10.9450    0.4832    1.1805 C.ar    1  VEB1        0.1206
     20 C13       -10.4682    0.0773    2.4221 C.ar    1  VEB1       -0.0197
     21 C14        -9.1757    0.4290    2.8275 C.ar    1  VEB1       -0.0543
     22 H6         -8.1775    2.0687    0.0191 H       1  VEB1        0.0622
     23 H7        -10.4519    1.4364   -0.6828 H       1  VEB1        0.0654
     24 H8        -11.0882   -0.5140    3.0893 H       1  VEB1        0.0654
     25 H9         -8.8665    0.1146    3.8203 H       1  VEB1        0.0622
     26 H10        -4.8317    3.3052    1.5075 H       1  VEB1        0.0622
     27 H11        -2.8709    2.6154    0.2930 H       1  VEB1        0.0654
     28 H12        -4.3391   -1.4263    0.1457 H       1  VEB1        0.0654
     29 H13        -6.3498   -0.7430    1.3786 H       1  VEB1        0.0622
     30 O          -2.3235    0.0298   -0.4641 O.3     1  VEB1       -0.4893
     31 O1        -12.2153    0.2044    0.7506 O.3     1  VEB1       -0.4893
     32 C15        -1.0958    0.7195   -0.1648 C.3     1  VEB1        0.1186
     33 C16         0.0877   -0.1547   -0.6098 C.3     1  VEB1        0.1229
     34 H14        -1.0272    0.8934    0.9171 H       1  VEB1        0.0724
     35 H15        -1.0693    1.6723   -0.7053 H       1  VEB1        0.0724
     36 C17         1.4250    0.5270   -0.2716 C.3     1  VEB1        0.1186
     37 O2          0.0114   -1.4135    0.0801 O.3     1  VEB1       -0.3850
     38 H16         0.0235   -0.3804   -1.6800 H       1  VEB1        0.0661
     39 H17        -0.8901   -1.7517   -0.0782 H       1  VEB1        0.2101
     40 C18       -13.2201    0.6955    1.6594 C.3     1  VEB1        0.1186
     41 C19       -14.6082    0.4522    1.0540 C.3     1  VEB1        0.1230
     42 H18       -13.0638    1.7707    1.8126 H       1  VEB1        0.0724
     43 H19       -13.1532    0.1685    2.6179 H       1  VEB1        0.0724
     44 C20       -15.6892    1.2360    1.8059 C.3     1  VEB1        0.1215
     45 O3        -14.9235   -0.9486    1.1362 O.3     1  VEB1       -0.3850
     46 H20       -14.6156    0.7098   -0.0113 H       1  VEB1        0.0662
     47 H21       -15.8168   -1.0486    0.7606 H       1  VEB1        0.2101
     48 O4        -16.9502    0.9838    1.1548 O.3     1  VEB1       -0.4617
     49 H22       -15.4755    2.3102    1.7781 H       1  VEB1        0.0725
     50 H23       -15.7564    0.8887    2.8438 H       1  VEB1        0.0725
     51 C21       -18.0235    1.5964    1.7368 C.2     1  VEB1        0.3097
     52 C22       -19.2951    1.2072    0.9969 C.3     1  VEB1        0.0508
     53 C23       -19.6960   -0.2193    1.4144 C.3     1  VEB1       -0.0525
     54 H25       -19.9962   -0.2132    2.4721 H       1  VEB1        0.0237
     55 H26       -18.7993   -0.8498    1.3748 H       1  VEB1        0.0237
     56 O5        -17.9631    2.3324    2.7104 O.2     1  VEB1       -0.2506
     57 C24       -20.3989    2.2312    1.2487 C.3     1  VEB1       -0.0525
     58 H27       -19.0483    1.2457   -0.0706 H       1  VEB1        0.0408
     59 H28       -20.0504    3.2426    1.0107 H       1  VEB1        0.0237
     60 H29       -20.7148    2.2307    2.2976 H       1  VEB1        0.0237
     61 H30       -21.2766    2.0298    0.6270 H       1  VEB1        0.0237
     62 H31         8.4660   -1.3190    3.0695 H       1  VEB1        0.0241
     63 H32         6.7222   -1.3654    2.8724 H       1  VEB1        0.0241
     64 C25         7.6666   -1.2699    2.3216 C.3     1  VEB1       -0.0517
     65 H33         7.0669    1.2063    3.2640 H       1  VEB1        0.0241
     66 H34         7.7685   -2.1554    1.6828 H       1  VEB1        0.0241
     67 H35         8.8160    1.0935    3.0940 H       1  VEB1        0.0241
     68 C26         7.8810    1.1973    2.5292 C.3     1  VEB1       -0.0517
     69 H36        10.2720   -0.9855    1.9195 H       1  VEB1        0.0622
     70 C27         7.7077    0.0509    1.4977 C.3     1  VEB1        0.0151
     71 C28        10.1832   -0.4412    0.9831 C.ar    1  VEB1       -0.0543
     72 H37         5.6536    2.0070    1.5849 H       1  VEB1        0.0622
     73 H38         7.9129    2.1802    2.0435 H       1  VEB1        0.0241
     74 C29         6.3522    0.1226    0.7432 C.ar    1  VEB1       -0.0372
     75 C30         5.4209    1.1558    0.9510 C.ar    1  VEB1       -0.0543
     76 C31         8.9545    0.1215    0.5814 C.ar    1  VEB1       -0.0372
     77 H39        12.2505   -0.8051    0.5403 H       1  VEB1        0.0654
     78 C32        11.3413   -0.3145    0.2065 C.ar    1  VEB1       -0.0197
     79 C33         5.9703   -0.9134   -0.1310 C.ar    1  VEB1       -0.0543
     80 C34         4.1382    1.1148    0.3827 C.ar    1  VEB1       -0.0197
     81 H40         6.6602   -1.7245   -0.3573 H       1  VEB1        0.0622
     82 H41         3.4603    1.9358    0.5908 H       1  VEB1        0.0654
     83 C35         4.6871   -0.9548   -0.6946 C.ar    1  VEB1       -0.0197
     84 C36         3.7499    0.0349   -0.4049 C.ar    1  VEB1        0.1206
     85 C37         8.9421    0.8244   -0.6365 C.ar    1  VEB1       -0.0543
     86 H42        13.4312    2.1025   -0.9611 H       1  VEB1        0.0724
     87 C38        11.3093    0.4055   -0.9816 C.ar    1  VEB1        0.1206
     88 H43         4.4077   -1.7893   -1.3333 H       1  VEB1        0.0654
     89 O6          2.5020   -0.1491   -0.9406 O.3     1  VEB1       -0.4893
     90 H44         8.0285    1.2906   -0.9997 H       1  VEB1        0.0622
     91 H45        13.7683    0.5166   -0.2095 H       1  VEB1        0.0724
     92 C39        13.5760    1.0332   -1.1555 C.3     1  VEB1        0.1186
     93 C40        10.1027    0.9486   -1.4159 C.ar    1  VEB1       -0.0197
     94 O7         12.3928    0.5365   -1.8071 O.3     1  VEB1       -0.4893
     95 O8         15.1051   -0.5814   -2.1210 O.3     1  VEB1       -0.3850
     96 H46        16.2959    1.2348   -0.5900 H       1  VEB1        0.0725
     97 C41        14.7803    0.8197   -2.0836 C.3     1  VEB1        0.1230
     98 H47        10.0604    1.4812   -2.3621 H       1  VEB1        0.0654
     99 H48        15.9171   -0.6579   -2.6542 H       1  VEB1        0.2101
    100 C42        16.0115    1.5856   -1.5895 C.3     1  VEB1        0.1215
    101 H49        14.5340    1.1083   -3.1117 H       1  VEB1        0.0662
    102 H50        15.8127    2.6629   -1.5701 H       1  VEB1        0.0725
    103 O9         17.0998    1.3148   -2.4972 O.3     1  VEB1       -0.4617
    104 O10        18.4424    2.6064   -1.1598 O.2     1  VEB1       -0.2506
    105 C43        18.2890    1.8774   -2.1292 C.2     1  VEB1        0.3097
    106 C44        19.7281   -0.0374   -2.8690 C.3     1  VEB1       -0.0525
    107 H52        19.0680   -0.4578   -2.0978 H       1  VEB1        0.0237
    108 C45        19.3842    1.4494   -3.0951 C.3     1  VEB1        0.0508
    109 H53        18.9899    1.6211   -4.1047 H       1  VEB1        0.0408
    110 H54        20.7452   -0.1420   -2.4676 H       1  VEB1        0.0237
    111 C46        20.6172    2.3383   -2.9344 C.3     1  VEB1       -0.0525
    112 H55        21.0487    2.2486   -1.9313 H       1  VEB1        0.0237
    113 H56        20.3596    3.3918   -3.0891 H       1  VEB1        0.0237
    114 H57        21.3900    2.0704   -3.6622 H       1  VEB1        0.0237
    115 H58         1.5689    0.4905    0.8161 H       1  VEB1        0.0724
    116 H59         1.4116    1.5677   -0.6150 H       1  VEB1        0.0724
    117 C         -21.1244   -2.2937    1.0362 C.ar    1  CRO01      -0.0476
    118 C1        -22.4522   -2.6804    1.2769 C.ar    1  CRO01      -0.0586
    119 C2        -22.7583   -3.9909    1.6523 C.ar    1  CRO01      -0.0615
    120 C3        -21.7427   -4.9331    1.7943 C.ar    1  CRO01      -0.0617
    121 C4        -20.4211   -4.5675    1.5551 C.ar    1  CRO01      -0.0615
    122 C5        -20.1146   -3.2601    1.1716 C.ar    1  CRO01      -0.0586
    123 C6        -20.8233   -0.8704    0.5783 C.3     1  CRO01      -0.0305
    124 C7        -20.5207   -0.8806   -0.9238 C.3     1  CRO01      -0.0613
    125 H1        -21.7314   -0.2721    0.7284 H       1  CRO01       0.0311
    126 H2        -19.5510   -1.3449   -1.1346 H       1  CRO01       0.0233
    127 H3        -20.5076    0.1344   -1.3323 H       1  CRO01       0.0233
    128 H4        -21.2849   -1.4381   -1.4777 H       1  CRO01       0.0233
    129 H5        -19.0757   -3.0137    0.9687 H       1  CRO01       0.0620
    130 H6        -21.9809   -5.9529    2.0844 H       1  CRO01       0.0618
    131 H7        -19.6266   -5.3020    1.6586 H       1  CRO01       0.0618
    132 H8        -23.2642   -1.9656    1.1624 H       1  CRO01       0.0620
    133 H9        -23.7917   -4.2777    1.8284 H       1  CRO01       0.0618
    134 C          19.5705   -2.3652   -3.7990 C.ar    1  CRO11      -0.0476
    135 C1         18.3461   -3.0527   -3.7877 C.ar    1  CRO11      -0.0586
    136 C2         18.2883   -4.4041   -3.4429 C.ar    1  CRO11      -0.0615
    137 C3         19.4529   -5.0878   -3.1044 C.ar    1  CRO11      -0.0617
    138 C4         20.6746   -4.4187   -3.1046 C.ar    1  CRO11      -0.0615
    139 C5         20.7335   -3.0648   -3.4438 C.ar    1  CRO11      -0.0586
    140 C6         19.5921   -0.8857   -4.1528 C.3     1  CRO11      -0.0305
    141 C7         20.6795   -0.5524   -5.1820 C.3     1  CRO11      -0.0613
    142 H1         18.6294   -0.6451   -4.6243 H       1  CRO11       0.0311
    143 H2         21.6862   -0.6491   -4.7613 H       1  CRO11       0.0233
    144 H3         20.5740    0.4747   -5.5456 H       1  CRO11       0.0233
    145 H4         20.6144   -1.2174   -6.0505 H       1  CRO11       0.0233
    146 H5         21.6986   -2.5649   -3.4223 H       1  CRO11       0.0620
    147 H6         19.4076   -6.1400   -2.8369 H       1  CRO11       0.0618
    148 H7         21.5836   -4.9508   -2.8364 H       1  CRO11       0.0618
    149 H8         17.4220   -2.5406   -4.0462 H       1  CRO11       0.0620
    150 H9         17.3324   -4.9217   -3.4370 H       1  CRO11       0.0618
@<TRIPOS>BOND
     1   113   111    1
     2   114   111    1
     3   111   112    1
     4   111   108    1
     5   109   108    1
     6   101    97    1
     7   108   105    1
     8   108   106    1
     9    99    95    1
    10    98    93    1
    11   110   106    1
    12   103   105    1
    13   103   100    1
    14    95    97    1
    15    97   100    1
    16    97    92    1
    17   105   104    2
    18   106   107    1
    19    94    92    1
    20    94    87    1
    21   102   100    1
    22    38    33    1
    23    93    87   ar
    24    93    85   ar
    25   100    96    1
    26    88    83    1
    27    90    85    1
    28    92    86    1
    29    92    91    1
    30    87    78   ar
    31    89    84    1
    32    89    36    1
    33    23    18    1
    34    83    84   ar
    35    83    79   ar
    36    85    76   ar
    37    35    32    1
    38    33    36    1
    39    33    32    1
    40    33    37    1
    41    84    80   ar
    42    81    79    1
    43   116    36    1
    44    30    32    1
    45    30    13    1
    46    79    74   ar
    47    36   115    1
    48    59    57    1
    49    46    41    1
    50    32    34    1
    51    22    17    1
    52    39    37    1
    53    18    17   ar
    54    18    19   ar
    55    13    12   ar
    56    13    14   ar
    57    27    12    1
    58    61    57    1
    59    80    82    1
    60    80    75   ar
    61    28    14    1
    62    78    77    1
    63    78    71   ar
    64    76    71   ar
    65    76    70    1
    66    12    11   ar
    67    14    15   ar
    68    58    52    1
    69    74    75   ar
    70    74    70    1
    71    17    16   ar
    72    57    52    1
    73    57    60    1
    74    31    19    1
    75    31    40    1
    76    75    72    1
    77    41    45    1
    78    41    40    1
    79    41    44    1
    80    19    20   ar
    81    71    69    1
    82    47    45    1
    83    11    26    1
    84    11    10   ar
    85    15    29    1
    86    15    10   ar
    87    48    44    1
    88    48    51    1
    89    52    51    1
    90    52    53    1
    91    70    64    1
    92    70    68    1
    93    66    64    1
    94    49    44    1
    95     5     2    1
    96    10     1    1
    97    40    42    1
    98    40    43    1
    99    44    50    1
   100    51    56    2
   101    16     1    1
   102    16    21   ar
   103    73    68    1
   104    64    63    1
   105    64    62    1
   106    54    53    1
   107    20    21   ar
   108    20    24    1
   109     1     2    1
   110     1     6    1
   111    53    55    1
   112    68    67    1
   113    68    65    1
   114     2     3    1
   115     2     4    1
   116    21    25    1
   117     6     8    1
   118     6     7    1
   119     6     9    1
   120   125   123    1
   121   128   124    1
   122   132   118    1
   123   118   117   ar
   124   118   119   ar
   125   123   117    1
   126   123   124    1
   127   127   124    1
   128   133   119    1
   129   117   122   ar
   130   119   120   ar
   131   124   126    1
   132   120   130    1
   133   120   121   ar
   134   122   121   ar
   135   122   129    1
   136   121   131    1
   137   142   140    1
   138   145   141    1
   139   149   135    1
   140   135   134   ar
   141   135   136   ar
   142   140   134    1
   143   140   141    1
   144   144   141    1
   145   150   136    1
   146   134   139   ar
   147   136   137   ar
   148   141   143    1
   149   137   147    1
   150   137   138   ar
   151   139   138   ar
   152   139   146    1
   153   138   148    1
   154   123    53    1
   155   140   106    1
