@<TRIPOS>MOLECULE
GMA
 77 78 0 0 0
SMALL
GASTEIGER

@<TRIPOS>ATOM
      1 C3          9.6575   -6.1426   -1.5990 C.3     1  GMA        -0.0525
      2 C1          8.4569   -5.8098   -0.7174 C.3     1  GMA         0.0508
      3 C           8.7577   -6.1482    0.7412 C.3     1  GMA        -0.0525
      4 C           8.0898   -4.3493   -0.8591 C.2     1  GMA         0.3097
      5 O           8.6705   -3.5346   -1.5673 O.2     1  GMA        -0.2506
      6 O           6.9849   -4.0665   -0.1117 O.3     1  GMA        -0.4617
      7 C           6.5918   -2.6887   -0.1120 C.3     1  GMA         0.1215
      8 C5          7.4894   -1.8449    0.8101 C.3     1  GMA         0.1230
      9 C           7.0146   -0.3907    0.7476 C.3     1  GMA         0.1186
     10 O           7.7674    0.4486    1.6286 O.3     1  GMA        -0.4893
     11 C           7.5168    1.7900    1.4877 C.ar    1  GMA         0.1206
     12 C           6.4916    2.3318    0.7162 C.ar    1  GMA        -0.0197
     13 C           6.4108    3.7083    0.5068 C.ar    1  GMA        -0.0543
     14 C           7.3403    4.5933    1.0775 C.ar    1  GMA        -0.0372
     15 C           8.3026    4.0383    1.9474 C.ar    1  GMA        -0.0543
     16 C           8.3903    2.6523    2.1444 C.ar    1  GMA        -0.0197
     17 C           7.4122    6.0787    0.6098 C.3     1  GMA         0.0151
     18 C           6.0203    6.5697    0.1310 C.3     1  GMA        -0.0517
     19 C           7.8254    6.9834    1.7945 C.3     1  GMA        -0.0517
     20 C           8.4043    6.2612   -0.5730 C.ar    1  GMA        -0.0372
     21 C           9.0918    5.1772   -1.1405 C.ar    1  GMA        -0.0543
     22 C           9.9269    5.3322   -2.2475 C.ar    1  GMA        -0.0197
     23 C          10.1035    6.5817   -2.8381 C.ar    1  GMA         0.1206
     24 C           9.4420    7.6781   -2.2877 C.ar    1  GMA        -0.0197
     25 C           8.6117    7.5233   -1.1656 C.ar    1  GMA        -0.0543
     26 O          10.8835    6.8243   -3.9429 O.3     1  GMA        -0.4893
     27 C          11.5856    5.6746   -4.4340 C.3     1  GMA         0.1186
     28 C6         12.4650    6.0128   -5.6436 C.3     1  GMA         0.1230
     29 C          13.2429    4.7694   -6.1047 C.3     1  GMA         0.1215
     30 O          14.0667    4.2318   -5.0537 O.3     1  GMA        -0.4617
     31 C          13.7680    2.9688   -4.6317 C.2     1  GMA         0.3097
     32 O          12.8289    2.2997   -5.0395 O.2     1  GMA        -0.2506
     33 C2         14.7216    2.5349   -3.5332 C.3     1  GMA         0.0508
     34 C4         14.1184    2.8915   -2.1800 C.3     1  GMA        -0.0525
     35 C          15.0042    1.0373   -3.6283 C.3     1  GMA        -0.0525
     36 O          11.6788    6.4934   -6.7422 O.3     1  GMA        -0.3850
     37 O           7.4128   -2.3622    2.1461 O.3     1  GMA        -0.3850
     38 H           9.9199   -7.2028   -1.5218 H       1  GMA         0.0237
     39 H          10.5357   -5.5513   -1.3152 H       1  GMA         0.0237
     40 H           9.4388   -5.9251   -2.6501 H       1  GMA         0.0237
     41 H           7.6020   -6.4028   -1.0657 H       1  GMA         0.0408
     42 H           9.5465   -5.5024    1.1426 H       1  GMA         0.0237
     43 H           9.0766   -7.1894    0.8442 H       1  GMA         0.0237
     44 H           7.8708   -6.0085    1.3688 H       1  GMA         0.0237
     45 H           5.5611   -2.6697    0.2583 H       1  GMA         0.0725
     46 H           6.5726   -2.2963   -1.1368 H       1  GMA         0.0725
     47 H           8.5424   -1.9122    0.5181 H       1  GMA         0.0662
     48 H           5.9629   -0.3511    1.0564 H       1  GMA         0.0724
     49 H           7.1202   -0.0438   -0.2893 H       1  GMA         0.0724
     50 H           5.7552    1.7143    0.2146 H       1  GMA         0.0654
     51 H           5.6376    4.0542   -0.1723 H       1  GMA         0.0622
     52 H           9.0515    4.6616    2.4291 H       1  GMA         0.0622
     53 H           9.1803    2.2474    2.7731 H       1  GMA         0.0654
     54 H           5.2492    6.3867    0.8881 H       1  GMA         0.0241
     55 H           5.7095    6.0779   -0.7993 H       1  GMA         0.0241
     56 H           6.0151    7.6441   -0.0829 H       1  GMA         0.0241
     57 H           7.1672    6.8241    2.6575 H       1  GMA         0.0241
     58 H           7.7662    8.0464    1.5354 H       1  GMA         0.0241
     59 H           8.8563    6.8029    2.1181 H       1  GMA         0.0241
     60 H           8.9919    4.1675   -0.7522 H       1  GMA         0.0622
     61 H          10.4095    4.4360   -2.6217 H       1  GMA         0.0654
     62 H           9.5602    8.6616   -2.7351 H       1  GMA         0.0654
     63 H           8.1122    8.4072   -0.7764 H       1  GMA         0.0622
     64 H          10.8540    4.9173   -4.7420 H       1  GMA         0.0724
     65 H          12.2272    5.2915   -3.6327 H       1  GMA         0.0724
     66 H          13.1594    6.8143   -5.3694 H       1  GMA         0.0662
     67 H          13.9056    5.0410   -6.9335 H       1  GMA         0.0725
     68 H          12.5453    4.0295   -6.5165 H       1  GMA         0.0725
     69 H          15.6730    3.0644   -3.6648 H       1  GMA         0.0408
     70 H          13.1550    2.3908   -2.0306 H       1  GMA         0.0237
     71 H          13.9429    3.9697   -2.1029 H       1  GMA         0.0237
     72 H          14.7856    2.5971   -1.3632 H       1  GMA         0.0237
     73 H          14.0881    0.4463   -3.5182 H       1  GMA         0.0237
     74 H          15.7040    0.7218   -2.8468 H       1  GMA         0.0237
     75 H          15.4445    0.7851   -4.5991 H       1  GMA         0.0237
     76 H          10.8989    5.9180   -6.8338 H       1  GMA         0.2101
     77 H           6.5707   -2.0768    2.5376 H       1  GMA         0.2101
@<TRIPOS>BOND
     1     1     2    1
     2     2     3    1
     3     2     4    1
     4     4     5    2
     5     4     6    1
     6     6     7    1
     7     7     8    1
     8     8     9    1
     9     9    10    1
    10    10    11    1
    11    11    12   ar
    12    12    13   ar
    13    13    14   ar
    14    14    15   ar
    15    15    16   ar
    16    11    16   ar
    17    14    17    1
    18    17    18    1
    19    17    19    1
    20    17    20    1
    21    20    21   ar
    22    21    22   ar
    23    22    23   ar
    24    23    24   ar
    25    24    25   ar
    26    20    25   ar
    27    23    26    1
    28    26    27    1
    29    27    28    1
    30    28    29    1
    31    29    30    1
    32    30    31    1
    33    31    32    2
    34    31    33    1
    35    33    34    1
    36    33    35    1
    37    28    36    1
    38     8    37    1
    39     1    38    1
    40     1    39    1
    41     1    40    1
    42     2    41    1
    43     3    42    1
    44     3    43    1
    45     3    44    1
    46     7    45    1
    47     7    46    1
    48     8    47    1
    49     9    48    1
    50     9    49    1
    51    12    50    1
    52    13    51    1
    53    15    52    1
    54    16    53    1
    55    18    54    1
    56    18    55    1
    57    18    56    1
    58    19    57    1
    59    19    58    1
    60    19    59    1
    61    21    60    1
    62    22    61    1
    63    24    62    1
    64    25    63    1
    65    27    64    1
    66    27    65    1
    67    28    66    1
    68    29    67    1
    69    29    68    1
    70    33    69    1
    71    34    70    1
    72    34    71    1
    73    34    72    1
    74    35    73    1
    75    35    74    1
    76    35    75    1
    77    36    76    1
    78    37    77    1
