@<TRIPOS>MOLECULE
GMA
 77 78 0 0 0
SMALL
GASTEIGER

@<TRIPOS>ATOM
      1 C           0.9944    0.0537    0.0806 C.3     1  GMA         0.0151
      2 C           0.4298   -0.6581   -1.1910 C.3     1  GMA        -0.0517
      3 C           0.4454   -0.7357    1.3036 C.3     1  GMA        -0.0517
      4 C           0.4134    1.4825    0.0829 C.ar    1  GMA        -0.0372
      5 C          -0.9865    1.6327    0.0720 C.ar    1  GMA        -0.0543
      6 C          -1.5973    2.8814    0.0230 C.ar    1  GMA        -0.0197
      7 C          -0.8300    4.0416    0.0030 C.ar    1  GMA         0.1206
      8 O          -1.3451    5.3149   -0.0520 O.3     1  GMA        -0.4893
      9 C          -2.7628    5.3652   -0.2459 C.3     1  GMA         0.1186
     10 C5         -3.2833    6.7991   -0.3720 C.3     1  GMA         0.1230
     11 O          -2.6984    7.4751   -1.4950 O.3     1  GMA        -0.3850
     12 C          -4.8098    6.7373   -0.5580 C.3     1  GMA         0.1215
     13 O          -5.3854    8.0506   -0.6294 O.3     1  GMA        -0.4617
     14 C          -5.5504    8.6662    0.5713 C.2     1  GMA         0.3097
     15 O          -5.3235    8.1528    1.6555 O.2     1  GMA        -0.2506
     16 C1         -6.1006   10.0594    0.3581 C.3     1  GMA         0.0508
     17 C3         -7.6225   10.0059    0.3495 C.3     1  GMA        -0.0525
     18 C          -5.5721   10.9945    1.4372 C.3     1  GMA        -0.0525
     19 C           0.5595    3.9237    0.0327 C.ar    1  GMA        -0.0197
     20 C           1.1770    2.6588    0.0539 C.ar    1  GMA        -0.0543
     21 C           2.5365   -0.0724    0.1494 C.ar    1  GMA        -0.0372
     22 C           3.2447   -0.7443   -0.8518 C.ar    1  GMA        -0.0543
     23 C           4.5733   -1.1144   -0.6810 C.ar    1  GMA        -0.0197
     24 C           5.2633   -0.7938    0.4857 C.ar    1  GMA         0.1206
     25 O           6.5399   -1.2236    0.7698 O.3     1  GMA        -0.4893
     26 C           7.0186   -2.2140   -0.1486 C.3     1  GMA         0.1186
     27 C6          8.3925   -2.7713    0.2223 C.3     1  GMA         0.1230
     28 O           8.3561   -3.4808    1.4689 O.3     1  GMA        -0.3850
     29 C           8.8240   -3.7353   -0.9004 C.3     1  GMA         0.1215
     30 O          10.1526   -4.2256   -0.6897 O.3     1  GMA        -0.4617
     31 C          11.1351   -3.3533   -1.0474 C.2     1  GMA         0.3097
     32 O          10.9474   -2.2539   -1.5527 O.2     1  GMA        -0.2506
     33 C2         12.4853   -3.9385   -0.6962 C.3     1  GMA         0.0508
     33 C4         13.5434   -3.4072   -1.6596 C.3     1  GMA        -0.0525
     35 C          12.8161   -3.5993    0.7506 C.3     1  GMA        -0.0525
     36 C           4.6240   -0.0119    1.4444 C.ar    1  GMA        -0.0197
     37 C           3.2709    0.3404    1.2832 C.ar    1  GMA        -0.0543
     38 H          -0.6635   -0.6884   -1.2157 H       1  GMA         0.0241
     39 H           0.7517   -1.7052   -1.2461 H       1  GMA         0.0241
     40 H           0.7511   -0.1460   -2.1076 H       1  GMA         0.0241
     41 H          -0.6460   -0.8270    1.2887 H       1  GMA         0.0241
     42 H           0.7096   -0.2554    2.2531 H       1  GMA         0.0241
     43 H           0.8466   -1.7568    1.3247 H       1  GMA         0.0241
     44 H          -1.6425    0.7652    0.0813 H       1  GMA         0.0622
     45 H          -2.6807    2.8919   -0.0011 H       1  GMA         0.0654
     46 H          -3.2637    4.8975    0.6111 H       1  GMA         0.0724
     47 H          -3.0085    4.8296   -1.1725 H       1  GMA         0.0724
     48 H          -3.0098    7.3842    0.5114 H       1  GMA         0.0662
     49 H          -2.5977    6.8391   -2.2227 H       1  GMA         0.2101
     50 H          -5.2952    6.1501    0.2327 H       1  GMA         0.0725
     51 H          -5.0484    6.2477   -1.5099 H       1  GMA         0.0725
     52 H          -5.7403   10.4276   -0.6116 H       1  GMA         0.0408
     53 H          -8.0115    9.6051    1.2921 H       1  GMA         0.0237
     54 H          -7.9859    9.3578   -0.4556 H       1  GMA         0.0237
     55 H          -8.0474   11.0035    0.1988 H       1  GMA         0.0237
     56 H          -5.8963   10.6787    2.4353 H       1  GMA         0.0237
     57 H          -5.9225   12.0171    1.2723 H       1  GMA         0.0237
     58 H          -4.4764   11.0046    1.4350 H       1  GMA         0.0237
     59 H           1.1754    4.8205    0.0276 H       1  GMA         0.0654
     60 H           2.2641    2.6254    0.0404 H       1  GMA         0.0622
     61 H           2.7756   -1.0645   -1.7764 H       1  GMA         0.0622
     62 H           5.0145   -1.6933   -1.4842 H       1  GMA         0.0654
     63 H           7.1059   -1.7571   -1.1414 H       1  GMA         0.0724
     64 H           6.3083   -3.0526   -0.1693 H       1  GMA         0.0724
     65 H           9.1112   -1.9578    0.3554 H       1  GMA         0.0662
     66 H           7.5648   -4.0445    1.4841 H       1  GMA         0.2101
     67 H           8.7452   -3.2676   -1.8928 H       1  GMA         0.0725
     68 H           8.1674   -4.6124   -0.9136 H       1  GMA         0.0725
     69 H          12.4357   -5.0258   -0.8230 H       1  GMA         0.0408
     70 H          13.6171   -2.3145   -1.6133 H       1  GMA         0.0237
     71 H          13.2913   -3.6747   -2.6928 H       1  GMA         0.0237
     72 H          14.5276   -3.8276   -1.4297 H       1  GMA         0.0237
     73 H          12.8515   -2.5158    0.9057 H       1  GMA         0.0237
     74 H          13.7831   -4.0221    1.0386 H       1  GMA         0.0237
     75 H          12.0535   -4.0020    1.4253 H       1  GMA         0.0237
     76 H           5.1556    0.2917    2.3426 H       1  GMA         0.0654
     77 H           2.7859    0.9073    2.0768 H       1  GMA         0.0622
@<TRIPOS>BOND
     1     1     2    1
     2     1     3    1
     3     1     4    1
     4     4     5   ar
     5     5     6   ar
     6     6     7   ar
     7     7     8    1
     8     8     9    1
     9     9    10    1
    10    10    11    1
    11    10    12    1
    12    12    13    1
    13    13    14    1
    14    14    15    2
    15    14    16    1
    16    16    17    1
    17    16    18    1
    18     7    19   ar
    19    19    20   ar
    20     4    20   ar
    21     1    21    1
    22    21    22   ar
    23    22    23   ar
    24    23    24   ar
    25    24    25    1
    26    25    26    1
    27    26    27    1
    28    27    28    1
    29    27    29    1
    30    29    30    1
    31    30    31    1
    32    31    32    2
    33    31    33    1
    34    33    34    1
    35    33    35    1
    36    24    36   ar
    37    36    37   ar
    38    21    37   ar
    39     2    38    1
    40     2    39    1
    41     2    40    1
    42     3    41    1
    43     3    42    1
    44     3    43    1
    45     5    44    1
    46     6    45    1
    47     9    46    1
    48     9    47    1
    49    10    48    1
    50    11    49    1
    51    12    50    1
    52    12    51    1
    53    16    52    1
    54    17    53    1
    55    17    54    1
    56    17    55    1
    57    18    56    1
    58    18    57    1
    59    18    58    1
    60    19    59    1
    61    20    60    1
    62    22    61    1
    63    23    62    1
    64    26    63    1
    65    26    64    1
    66    27    65    1
    67    28    66    1
    68    29    67    1
    69    29    68    1
    70    33    69    1
    71    34    70    1
    72    34    71    1
    73    34    72    1
    74    35    73    1
    75    35    74    1
    76    35    75    1
    77    36    76    1
    78    37    77    1
