@<TRIPOS>MOLECULE
*****
 19 19 0 0 0
SMALL
GASTEIGER

@<TRIPOS>ATOM
      1 C          -2.7755    3.4088    0.0062 C.ar    1  MST1       -0.0583
      2 C          -1.4042    3.6825    0.0085 C.ar    1  MST1       -0.0544
      3 C          -3.2316    2.0831   -0.0007 C.ar    1  MST1       -0.0504
      4 C          -2.3008    1.0370   -0.0052 C.ar    1  MST1       -0.0583
      5 C          -0.9300    1.3078   -0.0029 C.ar    1  MST1       -0.0544
      6 C          -0.4626    2.6380    0.0040 C.ar    1  MST1       -0.0256
      7 C1          0.9846    2.9901    0.0068 C.2     1  MST1       -0.0617
      8 C2          1.9891    2.1033    0.0031 C.2     1  MST1       -0.0981
      9 C          -4.6984    1.7696   -0.0033 C.3     1  MST1       -0.0397
     10 H          -5.3148    2.6935    0.0008 H       1  MST1        0.0278
     11 H          -4.9529    1.1727    0.8979 H       1  MST1        0.0278
     12 H          -4.9516    1.1817   -0.9107 H       1  MST1        0.0278
     13 H          -3.4788    4.2327    0.0098 H       1  MST1        0.0620
     14 H          -1.0781    4.7157    0.0139 H       1  MST1        0.0624
     15 H          -0.2548    0.4661   -0.0065 H       1  MST1        0.0624
     16 H          -2.6382    0.0078   -0.0105 H       1  MST1        0.0620
     17 H           1.2547    4.0428    0.0122 H       1  UNL1        0.0618
     18 H           1.8328    1.0328   -0.0023 H       1  UNL1        0.0535
     19 H           3.0148    2.4574    0.0056 H       1  UNL1        0.0535
@<TRIPOS>BOND
     1     1     2   ar
     2     1     3   ar
     3     3     4   ar
     4     4     5   ar
     5     2     6   ar
     6     6     5   ar
     7     6     7    1
     8     7     8    2
     9     3     9    1
    10     9    10    1
    11     9    11    1
    12     9    12    1
    13     1    13    1
    14     2    14    1
    15     5    15    1
    16     4    16    1
    17     7    17    1
    18     8    18    1
    19     8    19    1
