@<TRIPOS>MOLECULE
DGE
 53 54 0 0 0
SMALL
GASTEIGER

@<TRIPOS>ATOM
      1 C           0.9601    0.0682    0.1490 C.3     1  DGE        -0.0517
      2 C           2.5158    0.0610    0.0695 C.3     1  DGE         0.0151
      3 C           2.9888    0.3744    1.5227 C.3     1  DGE        -0.0517
      4 C           3.0435   -1.3437   -0.3149 C.ar    1  DGE        -0.0372
      5 C           2.2654   -2.2043   -1.1002 C.ar    1  DGE        -0.0543
      6 C           2.6154   -3.5414   -1.2810 C.ar    1  DGE        -0.0197
      7 C           3.7559   -4.0699   -0.6824 C.ar    1  DGE         0.1206
      8 C           4.6062   -3.2065    0.0069 C.ar    1  DGE        -0.0197
      9 C           4.2621   -1.8570    0.1708 C.ar    1  DGE        -0.0543
     10 O           4.1011   -5.3998   -0.7036 O.3     1  DGE        -0.4894
     11 C           3.1002   -6.2627   -1.2708 C.3     1  DGE         0.1151
     12 C3          3.4888   -7.7350   -1.1214 C.3     1  DGE         0.0864
     13 O1          4.7488   -7.9743   -1.7458 O.3     1  DGE        -0.3887
     14 C1          3.5559   -8.1826    0.3300 C.3     1  DGE        -0.0357
     15 C           2.8918    1.1840   -0.9221 C.ar    1  DGE        -0.0372
     16 C           3.0523    2.4988   -0.4592 C.ar    1  DGE        -0.0543
     17 C           3.2536    3.5679   -1.3257 C.ar    1  DGE        -0.0197
     18 C           3.2961    3.3733   -2.7046 C.ar    1  DGE         0.1206
     19 C           3.1537    2.0763   -3.1940 C.ar    1  DGE        -0.0197
     20 C           2.9490    0.9932   -2.3162 C.ar    1  DGE        -0.0543
     21 O           3.4565    4.3802   -3.6269 O.3     1  DGE        -0.4894
     22 C           3.5239    5.7006   -3.0598 C.3     1  DGE         0.1151
     23 C4          3.6692    6.7696   -4.1450 C.3     1  DGE         0.0864
     24 O2          4.8809    6.5708   -4.8717 O.3     1  DGE        -0.3887
     25 C2          2.4996    6.7855   -5.1148 C.3     1  DGE        -0.0357
     26 H           0.5945   -0.7080    0.8319 H       1  DGE         0.0241
     27 H           0.4870   -0.0914   -0.8267 H       1  DGE         0.0241
     28 H           0.5820    1.0321    0.5106 H       1  DGE         0.0241
     29 H           2.7964   -0.4694    2.1962 H       1  DGE         0.0241
     30 H           2.4602    1.2314    1.9559 H       1  DGE         0.0241
     31 H           4.0596    0.6067    1.5647 H       1  DGE         0.0241
     32 H           1.3436   -1.8695   -1.5669 H       1  DGE         0.0622
     33 H           1.9409   -4.1449   -1.8761 H       1  DGE         0.0654
     34 H           5.5227   -3.5875    0.4515 H       1  DGE         0.0654
     35 H           4.9462   -1.2317    0.7348 H       1  DGE         0.0622
     36 H           3.0235   -6.0384   -2.3413 H       1  DGE         0.0722
     37 H           2.1344   -6.1066   -0.7734 H       1  DGE         0.0722
     38 H           2.7427   -8.3440   -1.6445 H       1  DGE         0.0624
     39 H           5.3392   -7.2529   -1.4565 H       1  DGE         0.2099
     40 H           4.3393   -7.6508    0.8786 H       1  DGE         0.0256
     41 H           3.7994   -9.2493    0.3821 H       1  DGE         0.0256
     42 H           2.5983   -8.0235    0.8364 H       1  DGE         0.0256
     43 H           2.9907    2.7425    0.5967 H       1  DGE         0.0622
     44 H           3.3496    4.5491   -0.8758 H       1  DGE         0.0654
     45 H           3.1775    1.8944   -4.2680 H       1  DGE         0.0654
     46 H           2.8110    0.0055   -2.7501 H       1  DGE         0.0622
     47 H           4.4071    5.7580   -2.4113 H       1  DGE         0.0722
     48 H           2.6102    5.9083   -2.4888 H       1  DGE         0.0722
     49 H           3.7417    7.7485   -3.6575 H       1  DGE         0.0624
     50 H           4.9306    5.6173   -5.0723 H       1  DGE         0.2099
     51 H           2.4413    5.8552   -5.6885 H       1  DGE         0.0256
     52 H           2.6246    7.5977   -5.8389 H       1  DGE         0.0256
     53 H           1.5529    6.9377   -4.5866 H       1  DGE         0.0256
@<TRIPOS>BOND
     1     1     2    1
     2     2     3    1
     3     2     4    1
     4     4     5   ar
     5     5     6   ar
     6     6     7   ar
     7     7     8   ar
     8     8     9   ar
     9     4     9   ar
    10     7    10    1
    11    10    11    1
    12    11    12    1
    13    12    13    1
    14    12    14    1
    15     2    15    1
    16    15    16   ar
    17    16    17   ar
    18    17    18   ar
    19    18    19   ar
    20    19    20   ar
    21    15    20   ar
    22    18    21    1
    23    21    22    1
    24    22    23    1
    25    23    24    1
    26    23    25    1
    27     1    26    1
    28     1    27    1
    29     1    28    1
    30     3    29    1
    31     3    30    1
    32     3    31    1
    33     5    32    1
    34     6    33    1
    35     8    34    1
    36     9    35    1
    37    11    36    1
    38    11    37    1
    39    12    38    1
    40    13    39    1
    41    14    40    1
    42    14    41    1
    43    14    42    1
    44    16    43    1
    45    17    44    1
    46    19    45    1
    47    20    46    1
    48    22    47    1
    49    22    48    1
    50    23    49    1
    51    24    50    1
    52    25    51    1
    53    25    52    1
    54    25    53    1
