@<TRIPOS>MOLECULE
*****
 377 386 0 0 0
SMALL
GASTEIGER

@<TRIPOS>ATOM
      1 C          25.0135   24.1499   27.9211 C.3     1  VEA1        0.0151
      2 C1         25.1896   25.3703   28.8797 C.3     1  VEA1       -0.0517
      3 H          26.1022   25.2549   29.5167 H       1  VEA1        0.0241
      4 H1         24.3437   25.4737   29.5986 H       1  VEA1        0.0241
      5 H2         25.3028   26.3191   28.3222 H       1  VEA1        0.0241
      6 C2         24.8801   22.9517   28.9217 C.3     1  VEA1       -0.0517
      7 H3         25.7347   22.8968   29.6411 H       1  VEA1        0.0241
      8 H4         24.8074   21.9736   28.4105 H       1  VEA1        0.0241
      9 H5         23.9781   23.0669   29.5698 H       1  VEA1        0.0241
     10 C3         26.4461   24.0670   27.1191 C.ar    1  VEA1       -0.0372
     11 C4         26.7557   24.9898   26.1001 C.ar    1  VEA1       -0.0543
     12 C5         28.0282   25.0481   25.4232 C.ar    1  VEA1       -0.0197
     13 C6         29.1484   24.2103   25.7114 C.ar    1  VEA1        0.1206
     14 C7         28.8591   23.2589   26.7544 C.ar    1  VEA1       -0.0197
     15 C8         27.5590   23.1885   27.4264 C.ar    1  VEA1       -0.0543
     16 C9         23.5777   24.2877   27.0849 C.ar    1  VEA1       -0.0372
     17 C10        22.6297   25.3682   27.2469 C.ar    1  VEA1       -0.0543
     18 C11        21.3452   25.4782   26.5474 C.ar    1  VEA1       -0.0197
     19 C12        20.8523   24.5140   25.6070 C.ar    1  VEA1        0.1206
     20 C13        21.8032   23.4188   25.4669 C.ar    1  VEA1       -0.0197
     21 C14        23.0888   23.3145   26.1688 C.ar    1  VEA1       -0.0543
     22 H6         22.8641   26.1582   27.9473 H       1  VEA1        0.0622
     23 H7         20.7299   26.3355   26.7694 H       1  VEA1        0.0654
     24 H8         21.5679   22.6018   24.8004 H       1  VEA1        0.0654
     25 H9         23.7198   22.4464   26.0029 H       1  VEA1        0.0622
     26 H10        25.9847   25.6961   25.8308 H       1  VEA1        0.0622
     27 H11        28.1386   25.7957   24.6577 H       1  VEA1        0.0654
     28 H12        29.6287   22.5639   27.0732 H       1  VEA1        0.0654
     29 H13        27.4566   22.4542   28.2208 H       1  VEA1        0.0622
     30 O          30.3898   24.3854   24.9802 O.3     1  VEA1       -0.4893
     31 O1         19.5656   24.5680   24.8853 O.3     1  VEA1       -0.4893
     32 C15        31.7279   23.8408   25.1475 C.3     1  VEA1        0.1186
     33 C16        33.0589   23.9494   24.0683 C.3     1  VEA1        0.1230
     34 H14        31.5456   22.7414   25.2146 H       1  VEA1        0.0724
     35 H15        32.0790   24.1284   26.1605 H       1  VEA1        0.0724
     36 C17        34.0578   25.2556   23.6793 C.3     1  VEA1        0.1215
     37 O2         33.9376   22.9815   24.5856 O.3     1  VEA1       -0.3850
     38 H16        32.6502   23.5574   23.1105 H       1  VEA1        0.0662
     39 H17        34.6199   22.7849   23.8954 H       1  VEA1        0.2101
     40 O3         35.3062   25.1826   22.8211 O.3     1  VEA1       -0.4615
     41 H18        34.3542   25.6341   24.6781 H       1  VEA1        0.0725
     42 H19        33.3935   26.0323   23.2446 H       1  VEA1        0.0725
     43 C18        36.4424   26.1059   22.9072 C.2     1  VEA1        0.3142
     44 C19        37.7055   26.7344   21.8063 C.3     1  VEA1        0.0801
     45 O4         36.2790   26.8432   23.8788 O.2     1  VEA1       -0.2502
     46 C20        38.8540   26.8944   23.1095 C.3     1  VEA1       -0.0357
     47 C21        36.4311   27.6518   21.4063 C.3     1  VEA1       -0.0484
     48 H24        36.0938   27.5607   20.3763 H       1  VEA1        0.0241
     49 H25        36.3891   28.6886   21.7933 H       1  VEA1        0.0241
     50 H26        35.3900   27.2093   21.2949 H       1  VEA1        0.0241
     51 C22        18.4706   25.5649   24.6740 C.3     1  VEA1        0.1186
     52 C23        16.9784   25.2247   23.8355 C.3     1  VEA1        0.1230
     53 H27        18.9448   26.4272   24.1609 H       1  VEA1        0.0724
     54 H28        18.1798   25.9108   25.6842 H       1  VEA1        0.0724
     55 C24        15.6786   26.3618   23.5138 C.3     1  VEA1        0.1215
     56 O5         16.4092   24.1301   24.5016 O.3     1  VEA1       -0.3850
     57 H29        17.3318   24.8884   22.8273 H       1  VEA1        0.0662
     58 H30        16.1722   23.4531   23.8135 H       1  VEA1        0.2101
     59 O6         14.2893   26.0604   22.9638 O.3     1  VEA1       -0.4615
     60 H31        16.1443   27.1251   22.8496 H       1  VEA1        0.0725
     61 H32        15.5126   26.8567   24.4877 H       1  VEA1        0.0725
     62 C25        13.0814   26.8904   22.6247 C.2     1  VEA1        0.3132
     63 C26        11.5183   26.3407   22.0858 C.3     1  VEA1        0.0667
     64 C27        10.9312   25.2639   23.7816 C.3     1  VEA1       -0.0222
     65 O7         13.2153   28.1027   22.6995 O.2     1  VEA1       -0.2502
     66 C28        12.2320   25.4462   20.9891 C.3     1  VEA1       -0.0494
     67 H37        12.7565   26.1325   20.2504 H       1  VEA1        0.0240
     68 H38        11.5690   24.8448   20.3445 H       1  VEA1        0.0240
     69 H39        13.0876   24.8155   21.2839 H       1  VEA1        0.0240
     70 H          52.5823   24.8375   32.4661 H       1  UNL1        0.0241
     71 H          51.6165   24.0798   33.7963 H       1  UNL1        0.0241
     72 C          52.4553   23.9250   33.0851 C.3     1  UNL1       -0.0517
     73 H          50.1833   24.6453   32.0895 H       1  UNL1        0.0622
     74 H          53.3797   23.8190   33.7021 H       1  UNL1        0.0241
     75 H          63.6835   26.5289   27.9088 H       1  UNL1        0.0237
     76 O          60.9794   25.9558   28.0193 O.2     1  UNL1       -0.2506
     77 H          48.1573   24.7282   30.7609 H       1  UNL1        0.0654
     78 O          41.5376   26.2736   26.7459 O.2     1  UNL1       -0.2505
     79 H          62.2434   27.0086   25.7917 H       1  UNL1        0.0237
     80 C          50.0071   23.8306   31.4025 C.ar    1  UNL1       -0.0543
     81 H          43.4601   24.9669   28.4228 H       1  UNL1        0.0725
     82 C          48.8146   23.8837   30.6254 C.ar    1  UNL1       -0.0197
     83 C          63.8681   25.5124   27.4994 C.3     1  UNL1       -0.0525
     84 H          46.8092   24.7801   28.3425 H       1  UNL1        0.0724
     85 H          53.0747   24.1587   30.0514 H       1  UNL1        0.0622
     86 H          44.5304   25.5578   27.1174 H       1  UNL1        0.0725
     87 C          52.2402   22.6628   32.2050 C.3     1  UNL1        0.0151
     88 H          45.9151   24.1648   29.7734 H       1  UNL1        0.0724
     89 C          62.4712   25.9756   25.4508 C.3     1  UNL1       -0.0525
     90 C          61.4385   24.9523   27.4892 C.2     1  UNL1        0.3097
     91 H          64.0283   24.8098   28.3456 H       1  UNL1        0.0237
     92 H          64.7963   25.5363   26.8894 H       1  UNL1        0.0237
     93 C          43.9328   24.6876   27.4559 C.3     1  UNL1        0.1215
     94 C          41.7960   25.3057   26.0479 C.2     1  UNL1        0.3100
     95 C          53.8041   23.4041   30.3106 C.ar    1  UNL1       -0.0543
     96 C          50.9328   22.7536   31.3155 C.ar    1  UNL1       -0.0372
     97 H          42.0298   26.0922   23.3187 H       1  UNL1        0.0238
     98 C          46.2987   23.8918   28.7666 C.3     1  UNL1        0.1186
     99 C          62.6858   25.0416   26.6459 C.3     1  UNL1        0.0508
    100 H          60.0326   23.8490   29.5409 H       1  UNL1        0.0725
    101 C          53.5465   22.5142   31.3714 C.ar    1  UNL1       -0.0372
    102 H          51.1496   21.6160   33.8106 H       1  UNL1        0.0241
    103 H          63.3862   26.0042   24.8207 H       1  UNL1        0.0237
    104 H          52.9132   21.4294   33.9301 H       1  UNL1        0.0241
    105 H          55.1661   24.0415   28.7705 H       1  UNL1        0.0654
    106 C          55.0004   23.3412   29.5786 C.ar    1  UNL1       -0.0197
    107 C          52.0695   21.4849   33.2031 C.3     1  UNL1       -0.0517
    108 C          39.3779   25.8111   24.3304 C.3     1  UNL1       -0.0393
    109 H          61.6295   25.6094   24.8252 H       1  UNL1        0.0237
    110 H          58.9001   24.0862   28.1453 H       1  UNL1        0.0725
    111 C          48.4707   22.8651   29.7068 C.ar    1  UNL1        0.1206
    112 O          42.8945   24.4584   26.4482 O.3     1  UNL1       -0.4617
    113 C          59.7797   23.5121   28.5116 C.3     1  UNL1        0.1215
    114 C          41.7315   25.0430   23.5216 C.3     1  UNL1       -0.0523
    115 C          45.0332   23.5086   27.8084 C.3     1  UNL1        0.1230
    116 C          40.8384   25.0410   24.7372 C.3     1  UNL1        0.0537
    117 O          60.8591   23.7402   27.6802 O.3     1  UNL1       -0.4617
    118 C          54.5557   21.5567   31.6719 C.ar    1  UNL1       -0.0543
    119 C          55.9936   22.4074   29.8965 C.ar    1  UNL1        0.1206
    120 O          47.2933   22.8743   28.9300 O.3     1  UNL1       -0.4893
    121 C          50.5968   21.7365   30.3958 C.ar    1  UNL1       -0.0543
    122 H          42.6410   24.4315   23.7097 H       1  UNL1        0.0238
    123 C          55.7578   21.5115   30.9534 C.ar    1  UNL1       -0.0197
    124 H          54.4612   20.8491   32.4818 H       1  UNL1        0.0622
    125 H          58.6236   21.9704   30.5341 H       1  UNL1        0.0724
    126 H          62.9262   24.0273   26.2571 H       1  UNL1        0.0408
    127 O          57.1587   22.4195   29.1869 O.3     1  UNL1       -0.4893
    128 O          44.3852   22.4270   28.4280 O.3     1  UNL1       -0.3850
    129 C          49.4033   21.7903   29.6136 C.ar    1  UNL1       -0.0197
    130 H          52.0047   20.5127   32.6715 H       1  UNL1        0.0241
    131 H          41.1817   24.6234   22.6573 H       1  UNL1        0.0238
    132 H          45.4955   23.1685   26.8562 H       1  UNL1        0.0662
    133 C          58.2997   21.6995   29.5045 C.3     1  UNL1        0.1186
    134 H          43.7749   22.0220   27.7630 H       1  UNL1        0.2101
    135 C          59.4542   22.0085   28.5370 C.3     1  UNL1        0.1230
    136 H          40.5254   23.9899   24.9384 H       1  UNL1        0.0411
    137 H          56.5040   20.7797   31.2386 H       1  UNL1        0.0654
    138 H          51.2692   20.8911   30.2862 H       1  UNL1        0.0622
    139 O          60.5806   21.2829   28.9649 O.3     1  UNL1       -0.3850
    140 H          61.2616   21.3346   28.2442 H       1  UNL1        0.2101
    141 H          49.2156   20.9728   28.9310 H       1  UNL1        0.0654
    142 H          59.1591   21.6732   27.5158 H       1  UNL1        0.0662
    143 H          58.0854   20.6084   29.4698 H       1  UNL1        0.0724
    144 H           0.7336   22.2836   36.2683 H       1  UNL1        0.0241
    145 H          -0.1830   21.4122   37.5508 H       1  UNL1        0.0241
    146 C           0.6857   21.3406   36.8488 C.3     1  UNL1       -0.0517
    147 H          -1.5846   22.0495   35.9256 H       1  UNL1        0.0622
    148 H           1.5875   21.2742   37.4919 H       1  UNL1        0.0241
    149 H          11.8266   25.5747   27.0463 H       1  UNL1        0.0240
    150 O           9.8965   24.3693   28.2224 O.2     1  UNL1       -0.2502
    151 H          -3.6380   22.0453   34.7017 H       1  UNL1        0.0654
    152 O          -9.6350   23.4967   30.8530 O.2     1  UNL1       -0.2506
    153 H           9.7951   26.5267   26.2599 H       1  UNL1        0.0240
    154 C          -1.7352   21.2152   35.2568 C.ar    1  UNL1       -0.0543
    155 H          -7.9204   22.2839   32.6981 H       1  UNL1        0.0725
    156 C          -2.9489   21.2227   34.5486 C.ar    1  UNL1       -0.0197
    157 C          11.7741   24.6608   26.4073 C.3     1  UNL1       -0.0496
    158 H          -4.8760   22.0592   32.3871 H       1  UNL1        0.0724
    159 H           1.2094   21.6841   33.7665 H       1  UNL1        0.0622
    160 H         -12.3301   22.8656   30.7293 H       1  UNL1        0.0237
    161 H          -6.9829   22.7530   31.2211 H       1  UNL1        0.0725
    162 C           0.5765   20.1023   35.9123 C.3     1  UNL1        0.0151
    163 H          -5.7552   21.4490   33.8500 H       1  UNL1        0.0724
    164 C           9.3087   25.6022   25.9082 C.3     1  UNL1       -0.0496
    165 C           9.7248   23.5802   27.2964 C.2     1  UNL1        0.3129
    166 H          12.0461   23.8459   27.1447 H       1  UNL1        0.0240
    167 H          12.6827   24.5919   25.7716 H       1  UNL1        0.0240
    168 C          -7.5253   21.9214   31.7236 C.3     1  UNL1        0.1215
    169 C          -9.6101   22.3134   30.5398 C.2     1  UNL1        0.3097
    170 C           2.0375   21.0086   33.9339 C.ar    1  UNL1       -0.0543
    171 C          -0.7770   20.1636   35.1081 C.ar    1  UNL1       -0.0372
    172 H         -11.1282   23.4870   28.5088 H       1  UNL1        0.0237
    173 C          -5.3685   21.1730   32.8442 C.3     1  UNL1        0.1186
    174 C          10.3701   24.4891   25.6578 C.3     1  UNL1        0.0632
    175 H           9.2593   22.4492   30.1749 H       1  UNL1        0.0725
    176 C           1.9073   20.0766   34.9800 C.ar    1  UNL1       -0.0372
    177 H          -0.5179   19.0233   37.5052 H       1  UNL1        0.0241
    178 H           8.6908   25.6610   25.0056 H       1  UNL1        0.0240
    179 H           1.2463   18.8185   37.6213 H       1  UNL1        0.0241
    180 H           3.1557   21.8607   32.3172 H       1  UNL1        0.0654
    181 C           3.1904   21.1114   33.0833 C.ar    1  UNL1       -0.0197
    182 C           0.4149   18.8965   36.8917 C.3     1  UNL1       -0.0517
    183 C         -12.0556   21.8064   30.5337 C.3     1  UNL1       -0.0525
    184 H           8.5012   25.4115   26.6510 H       1  UNL1        0.0240
    185 H           7.6444   22.8075   29.5629 H       1  UNL1        0.0725
    186 C          -3.2692   20.1799   33.6660 C.ar    1  UNL1        0.1206
    187 O          -8.5786   21.5153   30.9231 O.3     1  UNL1       -0.4617
    188 H         -11.9495   21.2787   31.5057 H       1  UNL1        0.0237
    189 C           8.4800   22.0996   29.4514 C.3     1  UNL1        0.1215
    190 C         -10.8882   22.4090   28.3828 C.3     1  UNL1       -0.0525
    191 C          -6.5568   20.7427   31.9609 C.3     1  UNL1        0.1230
    192 C         -10.7459   21.7162   29.7429 C.3     1  UNL1        0.0508
    193 O           9.0711   22.3381   27.9741 O.3     1  UNL1       -0.4615
    194 C           3.0553   19.2252   35.1188 C.ar    1  UNL1       -0.0543
    195 C           4.3754   20.3267   33.1754 C.ar    1  UNL1        0.1206
    196 O          -4.4351   20.1476   32.9500 O.3     1  UNL1       -0.4893
    197 C          -1.1297   19.1205   34.2280 C.ar    1  UNL1       -0.0543
    198 H         -12.8805   21.3244   29.9662 H       1  UNL1        0.0237
    199 H          -9.9450   22.3158   27.8039 H       1  UNL1        0.0237
    200 C           4.2570   19.3432   34.2624 C.ar    1  UNL1       -0.0197
    201 H           3.0263   18.4825   35.9185 H       1  UNL1        0.0622
    202 H           7.4466   20.7180   32.8318 H       1  UNL1        0.0724
    203 O           5.4479   20.6205   32.2051 O.3     1  UNL1       -0.4893
    204 O          -7.2268   19.6816   32.5941 O.3     1  UNL1       -0.3850
    205 C          -2.3497   19.1304   33.5222 C.ar    1  UNL1       -0.0197
    206 H           0.2973   17.9292   36.3648 H       1  UNL1        0.0241
    207 H         -11.7035   21.9328   27.7958 H       1  UNL1        0.0237
    208 H          -6.1565   20.4051   30.9771 H       1  UNL1        0.0662
    209 C           6.8821   20.3637   31.9328 C.3     1  UNL1        0.1186
    210 H          -7.9052   19.3361   31.9567 H       1  UNL1        0.2101
    211 C           7.8103   20.6932   30.4142 C.3     1  UNL1        0.1230
    212 H         -10.5261   20.6407   29.5631 H       1  UNL1        0.0408
    213 H           5.0558   18.6463   34.4887 H       1  UNL1        0.0654
    214 H          -0.4581   18.2857   34.0912 H       1  UNL1        0.0622
    215 O           8.9247   19.8397   30.5865 O.3     1  UNL1       -0.3850
    216 H           9.3801   20.0966   31.4393 H       1  UNL1        0.2101
    217 H          -2.5810   18.3120   32.8529 H       1  UNL1        0.0654
    218 H           7.1359   20.1634   29.7209 H       1  UNL1        0.0662
    219 H           6.9534   19.2502   32.0826 H       1  UNL1        0.0724
    220 H          -1.9575   30.8274   18.1430 H       1  UNL1        0.0241
    221 H          -2.9142   30.0511   19.4661 H       1  UNL1        0.0241
    222 C          -2.0600   29.9134   18.7654 C.3     1  UNL1       -0.0517
    223 H          -4.3017   30.6140   17.7897 H       1  UNL1        0.0622
    224 H          -1.1460   29.8266   19.3929 H       1  UNL1        0.0241
    225 H           9.8917   29.6459   16.9684 H       1  UNL1        0.0238
    226 O           7.6580   29.6486   18.6245 O.2     1  UNL1       -0.2505
    227 H          -6.2992   30.6252   16.4861 H       1  UNL1        0.0654
    228 O         -12.2276   32.0501   12.6657 O.2     1  UNL1       -0.2506
    229 C          -4.4447   29.7819   17.1170 C.ar    1  UNL1       -0.0543
    230 H         -10.5142   30.8342   14.5081 H       1  UNL1        0.0725
    231 C          -5.6178   29.7940   16.3607 C.ar    1  UNL1       -0.0197
    232 C          10.5113   29.2244   17.8357 C.3     1  UNL1       -0.0523
    233 H          -7.4841   30.6223   14.1858 H       1  UNL1        0.0724
    234 H          -1.3722   30.1631   15.7143 H       1  UNL1        0.0622
    235 H         -14.9179   31.4157   12.5454 H       1  UNL1        0.0237
    236 H          -9.5794   31.3073   13.0294 H       1  UNL1        0.0725
    237 C          -2.2371   28.6466   17.8850 C.3     1  UNL1        0.0151
    238 H          -8.3666   29.9987   15.6433 H       1  UNL1        0.0724
    239 C          10.6415   27.3882   20.4507 C.3     1  UNL1       -0.0248
    240 C           8.1356   28.6306   18.1512 C.2     1  UNL1        0.3100
    241 H          10.8521   30.2120   18.2201 H       1  UNL1        0.0238
    242 H          11.2613   28.7829   17.1264 H       1  UNL1        0.0238
    243 C         -10.1222   30.4750   13.5308 C.3     1  UNL1        0.1215
    244 C         -12.2031   30.8670   12.3519 C.2     1  UNL1        0.3097
    245 C          -0.6323   29.4189   15.9938 C.ar    1  UNL1       -0.0543
    246 C          -3.5143   28.7161   17.0175 C.ar    1  UNL1       -0.0372
    247 H         -13.7147   32.0378   10.3225 H       1  UNL1        0.0237
    248 C          -7.9780   29.7327   14.6348 C.3     1  UNL1        0.1186
    249 C           9.6982   28.1688   18.8271 C.3     1  UNL1        0.0546
    250 H           5.9724   29.7513   16.3004 H       1  UNL1        0.0725
    251 C          -0.9297   28.5146   17.0395 C.ar    1  UNL1       -0.0372
    252 H          -3.3761   27.6144   19.4688 H       1  UNL1        0.0241
    253 H          -1.6137   27.4032   19.6196 H       1  UNL1        0.0241
    254 H           0.8063   30.1370   14.5597 H       1  UNL1        0.0654
    255 C           0.6291   29.4016   15.3353 C.ar    1  UNL1       -0.0197
    256 C          -2.4412   27.4703   18.8809 C.3     1  UNL1       -0.0517
    257 C         -14.6437   30.3567   12.3490 C.3     1  UNL1       -0.0525
    258 H           7.0913   29.3189   15.0581 H       1  UNL1        0.0725
    259 C          -5.9076   28.7433   15.4751 C.ar    1  UNL1        0.1206
    260 O         -11.1735   30.0689   12.7325 O.3     1  UNL1       -0.4617
    261 H         -14.5346   29.8291   13.3210 H       1  UNL1        0.0237
    262 C           6.5229   28.8610   15.9178 C.3     1  UNL1        0.1215
    263 C         -13.4757   30.9598   10.1966 C.3     1  UNL1       -0.0525
    264 C          -9.1582   29.2973   13.7580 C.3     1  UNL1        0.1230
    265 C         -13.3357   30.2678   11.5565 C.3     1  UNL1        0.0508
    266 O           7.5449   28.2468   16.8473 O.3     1  UNL1       -0.4617
    267 C           0.0532   27.5461   17.3368 C.ar    1  UNL1       -0.0543
    268 C           1.6495   28.4876   15.7209 C.ar    1  UNL1        0.1206
    269 O          -7.0484   28.7099   14.7321 O.3     1  UNL1       -0.4893
    270 C          -3.8143   27.6721   16.1215 C.ar    1  UNL1       -0.0543
    271 H         -15.4682   29.8735   11.7827 H       1  UNL1        0.0237
    272 H         -12.5307   30.8660    9.6201 H       1  UNL1        0.0237
    273 C           1.2994   27.5351   16.6969 C.ar    1  UNL1       -0.0197
    274 H          -0.0901   26.8131   18.1139 H       1  UNL1        0.0622
    275 H           4.0667   27.5388   16.6369 H       1  UNL1        0.0724
    276 H           9.8294   27.3379   18.0922 H       1  UNL1        0.0411
    277 O           2.9485   28.5576   15.2135 O.3     1  UNL1       -0.4893
    278 O          -9.8221   28.2352   14.3965 O.3     1  UNL1       -0.3850
    279 C          -4.9928   27.6884   15.3615 C.ar    1  UNL1       -0.0197
    280 H          -2.5260   26.4985   18.3508 H       1  UNL1        0.0241
    281 H         -14.2895   30.4828    9.6090 H       1  UNL1        0.0237
    282 H          -8.7575   28.9602   12.7744 H       1  UNL1        0.0662
    283 C           3.9906   27.6530   15.5469 C.3     1  UNL1        0.1186
    284 H         -10.5002   27.8847   13.7623 H       1  UNL1        0.2101
    285 C           5.4687   27.9545   15.0296 C.3     1  UNL1        0.1230
    286 H         -13.1138   29.1924   11.3778 H       1  UNL1        0.0408
    287 H           2.0085   26.7915   17.0180 H       1  UNL1        0.0654
    288 H          -3.1352   26.8364   16.0156 H       1  UNL1        0.0622
    289 O           6.0916   26.7273   14.7516 O.3     1  UNL1       -0.3850
    290 H           6.7011   26.8710   13.9795 H       1  UNL1        0.2101
    291 H          -5.1975   26.8707   14.6825 H       1  UNL1        0.0654
    292 H           5.2289   28.4250   14.0248 H       1  UNL1        0.0662
    293 H           3.6599   26.6840   15.0978 H       1  UNL1        0.0724
    294 H          51.7792   29.0971   23.4373 H       1  UNL1        0.0241
    295 H          50.8137   28.3363   24.7657 H       1  UNL1        0.0241
    296 C          51.6560   28.1845   24.0574 C.3     1  UNL1       -0.0517
    297 H          49.3987   28.9036   23.0719 H       1  UNL1        0.0622
    298 H          52.5780   28.0798   24.6758 H       1  UNL1        0.0241
    299 H          62.8554   30.7886   18.8644 H       1  UNL1        0.0237
    300 O          60.1513   30.2154   18.9749 O.2     1  UNL1       -0.2506
    301 H          47.3603   28.9562   21.7950 H       1  UNL1        0.0654
    302 O          40.2136   29.1893   21.1284 O.2     1  UNL1       -0.2502
    303 H          61.4153   31.2683   16.7473 H       1  UNL1        0.0237
    304 C          49.2251   28.0839   22.3915 C.ar    1  UNL1       -0.0543
    305 H          42.8993   28.9267   20.7761 H       1  UNL1        0.0725
    306 C          48.0245   28.1190   21.6456 C.ar    1  UNL1       -0.0197
    307 C          63.0401   29.7721   18.4550 C.3     1  UNL1       -0.0525
    308 H          45.6860   28.9240   19.6058 H       1  UNL1        0.0724
    309 H          52.2607   28.4194   21.0196 H       1  UNL1        0.0622
    310 H          38.1973   29.6245   19.7313 H       1  UNL1        0.0240
    311 H          42.5926   29.0612   19.0339 H       1  UNL1        0.0725
    312 C          51.4458   26.9229   23.1768 C.3     1  UNL1        0.0151
    313 H          45.2269   28.2168   21.1930 H       1  UNL1        0.0724
    314 C          61.6431   30.2353   16.4064 C.3     1  UNL1       -0.0525
    315 C          60.6107   29.2120   18.4447 C.2     1  UNL1        0.3097
    316 H          63.2001   29.0694   19.3012 H       1  UNL1        0.0237
    317 H          63.9682   29.7959   17.8449 H       1  UNL1        0.0237
    318 C          42.6867   28.3254   19.8720 C.3     1  UNL1        0.1215
    319 C          40.2064   28.0905   20.5872 C.2     1  UNL1        0.3139
    320 C          52.9917   27.6647   21.2754 C.ar    1  UNL1       -0.0543
    321 C          50.1488   27.0107   22.2912 C.ar    1  UNL1       -0.0372
    322 H          39.7144   27.2057   18.3043 H       1  UNL1        0.0240
    323 C          45.3910   27.9827   20.1241 C.3     1  UNL1        0.1186
    324 C          61.8578   29.3014   17.6014 C.3     1  UNL1        0.0508
    325 H          59.2053   28.1077   20.4959 H       1  UNL1        0.0725
    326 C          52.7425   26.7753   22.3385 C.ar    1  UNL1       -0.0372
    327 H          50.3402   25.8766   24.7715 H       1  UNL1        0.0241
    328 H          62.5581   30.2638   15.7763 H       1  UNL1        0.0237
    329 H          52.1036   25.6813   24.9005 H       1  UNL1        0.0241
    330 H          54.3439   28.2993   19.7272 H       1  UNL1        0.0654
    331 C          54.1822   27.5997   20.5368 C.ar    1  UNL1       -0.0197
    332 C          51.2646   25.7429   24.1702 C.3     1  UNL1       -0.0517
    333 C          38.0253   28.5776   19.4048 C.3     1  UNL1       -0.0486
    334 H          60.8014   29.8689   15.7810 H       1  UNL1        0.0237
    335 H          58.0728   28.3442   19.1003 H       1  UNL1        0.0725
    336 C          47.6769   27.0867   20.7501 C.ar    1  UNL1        0.1206
    337 O          41.4403   27.6175   20.0556 O.3     1  UNL1       -0.4615
    338 H          37.0520   28.3487   18.9288 H       1  UNL1        0.0240
    339 C          58.9530   27.7707   19.4664 C.3     1  UNL1        0.1215
    340 C          39.1473   26.5320   19.0379 C.3     1  UNL1       -0.0486
    341 C          43.9932   27.4203   19.5773 C.3     1  UNL1        0.1230
    342 C          38.7422   27.3989   20.3141 C.3     1  UNL1        0.0775
    343 O          60.0321   27.9998   18.6353 O.3     1  UNL1       -0.4617
    344 C          53.7473   25.8153   22.6337 C.ar    1  UNL1       -0.0543
    345 C          55.1748   26.6645   20.8512 C.ar    1  UNL1        0.1206
    346 O          46.4656   27.0580   20.0553 O.3     1  UNL1       -0.4893
    347 C          49.8196   25.9915   21.3712 C.ar    1  UNL1       -0.0543
    348 H          38.3742   28.7414   18.3628 H       1  UNL1        0.0240
    349 H          39.9457   25.7819   19.1516 H       1  UNL1        0.0240
    350 C          54.9435   25.7682   21.9091 C.ar    1  UNL1       -0.0197
    351 H          53.6523   25.1082   23.4439 H       1  UNL1        0.0622
    352 H          57.7994   26.2288   21.4871 H       1  UNL1        0.0724
    353 H          62.0982   28.2871   17.2126 H       1  UNL1        0.0408
    354 O          56.3363   26.6755   20.1381 O.3     1  UNL1       -0.4893
    355 O          43.7926   26.1604   20.1481 O.3     1  UNL1       -0.3850
    356 C          48.6164   26.0308   20.6145 C.ar    1  UNL1       -0.0197
    357 H          51.1944   24.7727   23.6350 H       1  UNL1        0.0241
    358 H          38.3174   26.2053   18.3775 H       1  UNL1        0.0240
    359 H          44.1210   27.2881   18.4693 H       1  UNL1        0.0662
    360 C          57.4766   25.9566   20.4573 C.3     1  UNL1        0.1186
    361 H          43.2658   25.6427   19.4813 H       1  UNL1        0.2101
    362 C          58.6298   26.2668   19.4908 C.3     1  UNL1        0.1230
    363 H          55.6885   25.0344   22.1910 H       1  UNL1        0.0654
    364 H          50.4963   25.1521   21.2501 H       1  UNL1        0.0622
    365 O          59.7566   25.5424   19.9193 O.3     1  UNL1       -0.3850
    366 H          60.4369   25.5936   19.1981 H       1  UNL1        0.2101
    367 H          48.4148   25.2122   19.9362 H       1  UNL1        0.0654
    368 H          58.3347   25.9313   18.4697 H       1  UNL1        0.0662
    369 H          57.2625   24.8655   20.4235 H       1  UNL1        0.0724
    370 H          39.1321   26.3061   25.2954 H       1  UNL1        0.0273
    371 H          38.6051   25.0096   24.3450 H       1  UNL1        0.0273
    372 H          38.3274   27.6218   23.7519 H       1  UNL1        0.0276
    373 H          39.6601   27.6029   22.9132 H       1  UNL1        0.0276
    374 H          11.6547   24.4393   23.5683 H       1  UNL1        0.0286
    375 H          11.4682   26.0624   24.3511 H       1  UNL1        0.0286
    376 H          11.5795   27.8818   20.0710 H       1  UNL1        0.0283
    377 H          10.3083   26.4717   19.9498 H       1  UNL1        0.0283
@<TRIPOS>BOND
     1    68    66    1
     2    69    66    1
     3    66    67    1
     4    66    63    1
     5    48    47    1
     6    50    47    1
     7    47    49    1
     8    47    44    1
     9    63    62    1
    10    63    64    1
    11    44    43    1
    12    44    46    1
    13    62    65    2
    14    62    59    1
    15    59    55    1
    16    57    52    1
    17    60    55    1
    18    38    33    1
    19    43    40    1
    20    43    45    2
    21    40    36    1
    22    55    52    1
    23    55    61    1
    24    42    36    1
    25    52    56    1
    26    52    51    1
    27    58    56    1
    28    39    37    1
    29    36    33    1
    30    36    41    1
    31    33    37    1
    32    33    32    1
    33    53    51    1
    34    27    12    1
    35    24    20    1
    36    31    51    1
    37    31    19    1
    38    51    54    1
    39    30    32    1
    40    30    13    1
    41    34    32    1
    42    32    35    1
    43    12    13   ar
    44    12    11   ar
    45    20    19   ar
    46    20    21   ar
    47    19    18   ar
    48    13    14   ar
    49    26    11    1
    50    11    10   ar
    51    25    21    1
    52    21    16   ar
    53    18    23    1
    54    18    17   ar
    55    14    28    1
    56    14    15   ar
    57    16    17   ar
    58    16     1    1
    59    10    15   ar
    60    10     1    1
    61    17    22    1
    62    15    29    1
    63     1     2    1
    64     1     6    1
    65     5     2    1
    66     8     6    1
    67     2     3    1
    68     2     4    1
    69     6     9    1
    70     6     7    1
    71    70    72    1
    72    72    74    1
    73    72    71    1
    74    80    73    1
    75    82    77    1
    76    82    80   ar
    77    83    75    1
    78    83    91    1
    79    84    98    1
    80    85    95    1
    81    86    93    1
    82    87    72    1
    83    87   107    1
    84    89    79    1
    85    89    99    1
    86    90   117    1
    87    90    76    2
    88    92    83    1
    89    93   115    1
    90    93    81    1
    91    94    78    2
    92    94   112    1
    93    95   101   ar
    94    96    80   ar
    95    96    87    1
    96    98    88    1
    97    99    90    1
    98    99    83    1
    99   101   118   ar
   100   101    87    1
   101   103    89    1
   102   105   106    1
   103   106   119   ar
   104   106    95   ar
   105   107   102    1
   106   107   104    1
   107   109    89    1
   108   110   113    1
   109   111    82   ar
   110   112    93    1
   111   113   135    1
   112   113   100    1
   113   114    97    1
   114   114   116    1
   115   115   132    1
   116   115   128    1
   117   115    98    1
   118   116    94    1
   119   116   108    1
   120   117   113    1
   121   118   124    1
   122   119   123   ar
   123   120    98    1
   124   120   111    1
   125   121    96   ar
   126   122   114    1
   127   123   137    1
   128   123   118   ar
   129   126    99    1
   130   127   133    1
   131   127   119    1
   132   129   111   ar
   133   129   121   ar
   134   130   107    1
   135   131   114    1
   136   133   125    1
   137   134   128    1
   138   135   142    1
   139   135   139    1
   140   135   133    1
   141   136   116    1
   142   138   121    1
   143   140   139    1
   144   141   129    1
   145   143   133    1
   146   144   146    1
   147   146   148    1
   148   146   145    1
   149   154   147    1
   150   156   151    1
   151   156   154   ar
   152   157   149    1
   153   157   166    1
   154   158   173    1
   155   159   170    1
   156   161   168    1
   157   162   146    1
   158   162   182    1
   159   164   153    1
   160   164   174    1
   161   165   193    1
   162   165   150    2
   163   167   157    1
   164   168   191    1
   165   168   155    1
   166   169   152    2
   167   169   187    1
   168   170   176   ar
   169   171   154   ar
   170   171   162    1
   171   173   163    1
   172   174   165    1
   173   174   157    1
   174   176   194   ar
   175   176   162    1
   176   178   164    1
   177   180   181    1
   178   181   195   ar
   179   181   170   ar
   180   182   177    1
   181   182   179    1
   182   183   160    1
   183   183   188    1
   184   184   164    1
   185   185   189    1
   186   186   156   ar
   187   187   168    1
   188   189   211    1
   189   189   175    1
   190   190   172    1
   191   190   192    1
   192   191   208    1
   193   191   204    1
   194   191   173    1
   195   192   169    1
   196   192   183    1
   197   193   189    1
   198   194   201    1
   199   195   200   ar
   200   196   173    1
   201   196   186    1
   202   197   171   ar
   203   198   183    1
   204   199   190    1
   205   200   213    1
   206   200   194   ar
   207   203   209    1
   208   203   195    1
   209   205   186   ar
   210   205   197   ar
   211   206   182    1
   212   207   190    1
   213   209   202    1
   214   210   204    1
   215   211   218    1
   216   211   215    1
   217   211   209    1
   218   212   192    1
   219   214   197    1
   220   216   215    1
   221   217   205    1
   222   219   209    1
   223   220   222    1
   224   222   224    1
   225   222   221    1
   226   229   223    1
   227   231   227    1
   228   231   229   ar
   229   232   225    1
   230   232   241    1
   231   233   248    1
   232   234   245    1
   233   236   243    1
   234   237   222    1
   235   237   256    1
   236   239   249    1
   237   240   266    1
   238   240   226    2
   239   242   232    1
   240   243   264    1
   241   243   230    1
   242   244   228    2
   243   244   260    1
   244   245   251   ar
   245   246   229   ar
   246   246   237    1
   247   248   238    1
   248   249   240    1
   249   249   232    1
   250   251   267   ar
   251   251   237    1
   252   254   255    1
   253   255   268   ar
   254   255   245   ar
   255   256   252    1
   256   256   253    1
   257   257   235    1
   258   257   261    1
   259   258   262    1
   260   259   231   ar
   261   260   243    1
   262   262   285    1
   263   262   250    1
   264   263   247    1
   265   263   265    1
   266   264   282    1
   267   264   278    1
   268   264   248    1
   269   265   244    1
   270   265   257    1
   271   266   262    1
   272   267   274    1
   273   268   273   ar
   274   269   248    1
   275   269   259    1
   276   270   246   ar
   277   271   257    1
   278   272   263    1
   279   273   287    1
   280   273   267   ar
   281   276   249    1
   282   277   283    1
   283   277   268    1
   284   279   259   ar
   285   279   270   ar
   286   280   256    1
   287   281   263    1
   288   283   275    1
   289   284   278    1
   290   285   292    1
   291   285   289    1
   292   285   283    1
   293   286   265    1
   294   288   270    1
   295   290   289    1
   296   291   279    1
   297   293   283    1
   298   294   296    1
   299   296   298    1
   300   296   295    1
   301   304   297    1
   302   306   301    1
   303   306   304   ar
   304   307   299    1
   305   307   316    1
   306   308   323    1
   307   309   320    1
   308   311   318    1
   309   312   296    1
   310   312   332    1
   311   314   303    1
   312   314   324    1
   313   315   343    1
   314   315   300    2
   315   317   307    1
   316   318   341    1
   317   318   305    1
   318   319   302    2
   319   319   337    1
   320   320   326   ar
   321   321   304   ar
   322   321   312    1
   323   323   313    1
   324   324   315    1
   325   324   307    1
   326   326   344   ar
   327   326   312    1
   328   328   314    1
   329   330   331    1
   330   331   345   ar
   331   331   320   ar
   332   332   327    1
   333   332   329    1
   334   333   310    1
   335   333   338    1
   336   334   314    1
   337   335   339    1
   338   336   306   ar
   339   337   318    1
   340   339   362    1
   341   339   325    1
   342   340   322    1
   343   340   342    1
   344   341   359    1
   345   341   355    1
   346   341   323    1
   347   342   319    1
   348   342   333    1
   349   343   339    1
   350   344   351    1
   351   345   350   ar
   352   346   323    1
   353   346   336    1
   354   347   321   ar
   355   348   333    1
   356   349   340    1
   357   350   363    1
   358   350   344   ar
   359   353   324    1
   360   354   360    1
   361   354   345    1
   362   356   336   ar
   363   356   347   ar
   364   357   332    1
   365   358   340    1
   366   360   352    1
   367   361   355    1
   368   362   368    1
   369   362   365    1
   370   362   360    1
   371   364   347    1
   372   366   365    1
   373   367   356    1
   374   369   360    1
   375   108    46    1
   376   108   370    1
   377   108   371    1
   378    46   372    1
   379    46   373    1
   380   342    44    1
   381    64   174    1
   382    64   374    1
   383    64   375    1
   384    63   239    1
   385   239   376    1
   386   239   377    1
