@<TRIPOS>MOLECULE
*****
 141 146 0 0 0
SMALL
GASTEIGER

@<TRIPOS>ATOM
      1 C           0.3227    0.5654    5.0382 C.3     1  VEA1        0.0151
      2 C1          0.4431    1.9193    5.7858 C.3     1  VEA1       -0.0517
      3 H           1.3124    1.9262    6.4557 H       1  VEA1        0.0241
      4 H1         -0.4385    2.1202    6.4061 H       1  VEA1        0.0241
      5 H2          0.5635    2.7625    5.0949 H       1  VEA1        0.0241
      6 C2          0.0244   -0.5034    6.1223 C.3     1  VEA1       -0.0517
      7 H3          0.7469   -0.4608    6.9460 H       1  VEA1        0.0241
      8 H4          0.0470   -1.5215    5.7158 H       1  VEA1        0.0241
      9 H5         -0.9688   -0.3521    6.5640 H       1  VEA1        0.0241
     10 C3          1.6789    0.3574    4.3219 C.ar    1  VEA1       -0.0372
     11 C4          1.9743    1.0886    3.1549 C.ar    1  VEA1       -0.0543
     12 C5          3.1967    0.9381    2.4949 C.ar    1  VEA1       -0.0197
     13 C6          4.1687    0.0772    2.9970 C.ar    1  VEA1        0.1206
     14 C7          3.8988   -0.6556    4.1494 C.ar    1  VEA1       -0.0197
     15 C8          2.6681   -0.5150    4.8052 C.ar    1  VEA1       -0.0543
     16 C9         -0.8623    0.5106    4.0427 C.ar    1  VEA1       -0.0372
     17 C10        -1.8304    1.5233    3.9559 C.ar    1  VEA1       -0.0543
     18 C11        -2.9016    1.4328    3.0557 C.ar    1  VEA1       -0.0197
     19 C12        -3.0367    0.3233    2.2234 C.ar    1  VEA1        0.1206
     20 C13        -2.0796   -0.6865    2.2890 C.ar    1  VEA1       -0.0197
     21 C14        -1.0112   -0.5995    3.1886 C.ar    1  VEA1       -0.0543
     22 H6         -1.7814    2.4075    4.5853 H       1  VEA1        0.0622
     23 H7         -3.6110    2.2529    3.0334 H       1  VEA1        0.0654
     24 H8         -2.1689   -1.5560    1.6424 H       1  VEA1        0.0654
     25 H9         -0.2870   -1.4122    3.2119 H       1  VEA1        0.0622
     26 H10         1.2451    1.7827    2.7404 H       1  VEA1        0.0622
     27 H11         3.3914    1.5074    1.5896 H       1  VEA1        0.0654
     28 H12         4.6185   -1.3572    4.5585 H       1  VEA1        0.0654
     29 H13         2.5100   -1.1066    5.7028 H       1  VEA1        0.0622
     30 O           5.3217    0.0068    2.2666 O.3     1  VEA1       -0.4893
     31 O1         -4.0381    0.1213    1.3109 O.3     1  VEA1       -0.4893
     32 C15         6.4924   -0.3768    2.9881 C.3     1  VEA1        0.1186
     33 C16         7.7217   -0.1572    2.1050 C.3     1  VEA1        0.1230
     34 H14         6.4431   -1.4390    3.2575 H       1  VEA1        0.0724
     35 H15         6.5944    0.2084    3.9118 H       1  VEA1        0.0724
     36 C17         7.8497    1.2995    1.6449 C.3     1  VEA1        0.1215
     37 O2          8.8952   -0.5431    2.8331 O.3     1  VEA1       -0.3850
     38 H16         7.6626   -0.8054    1.2226 H       1  VEA1        0.0662
     39 H17         9.6566   -0.3284    2.2611 H       1  VEA1        0.2101
     40 O3          9.0030    1.3720    0.7835 O.3     1  VEA1       -0.4617
     41 H18         8.0250    1.9595    2.5017 H       1  VEA1        0.0725
     42 H19         6.9555    1.6158    1.0976 H       1  VEA1        0.0725
     43 C18         9.1557    2.5338    0.0913 C.2     1  VEA1        0.3097
     44 C19        10.4046    2.5063   -0.8266 C.3     1  VEA1        0.0508
     45 O4          8.3620    3.4633    0.1478 O.2     1  VEA1       -0.2506
     46 C20        11.5719    1.7300   -0.0956 C.3     1  VEA1       -0.0525
     47 H21        12.1543    2.4734    0.4712 H       1  VEA1        0.0237
     48 H22        11.1795    1.1299    0.7292 H       1  VEA1        0.0237
     49 C21        10.8646    3.9945   -0.8914 C.3     1  VEA1       -0.0525
     50 H24        11.8195    4.0986   -1.4168 H       1  VEA1        0.0237
     51 H25        10.9926    4.4169    0.1132 H       1  VEA1        0.0237
     52 H26        10.1253    4.6234   -1.4020 H       1  VEA1        0.0237
     53 C22        -5.1724    0.9884    1.4173 C.3     1  VEA1        0.1186
     54 C23        -6.3143    0.4870    0.5143 C.3     1  VEA1        0.1230
     55 H27        -4.8719    1.9946    1.1020 H       1  VEA1        0.0724
     56 H28        -5.5284    1.0060    2.4558 H       1  VEA1        0.0724
     57 C24        -7.4396    1.5369    0.4974 C.3     1  VEA1        0.1215
     58 O5         -6.7835   -0.7556    1.0581 O.3     1  VEA1       -0.3850
     59 H29        -5.9522    0.2778   -0.4976 H       1  VEA1        0.0662
     60 H30        -7.6951   -0.9132    0.7342 H       1  VEA1        0.2101
     61 O6         -8.3257    1.4371   -0.6400 O.3     1  VEA1       -0.4617
     62 H31        -7.0122    2.5430    0.4287 H       1  VEA1        0.0725
     63 H32        -8.0349    1.4978    1.4183 H       1  VEA1        0.0725
     64 C25        -9.2978    0.4886   -0.5796 C.2     1  VEA1        0.3097
     65 C26       -10.4789    0.7636   -1.5474 C.3     1  VEA1        0.0508
     66 C27       -11.7710    0.3337   -0.7380 C.3     1  VEA1       -0.0525
     67 H34       -11.5150   -0.4761   -0.0530 H       1  VEA1        0.0237
     68 H35       -11.9513    1.1574   -0.0269 H       1  VEA1        0.0237
     69 O7         -9.2351   -0.4587    0.1962 O.2     1  VEA1       -0.2506
     70 C28       -10.5713    2.3091   -1.7610 C.3     1  VEA1       -0.0525
     71 H37       -10.7979    2.8310   -0.8238 H       1  VEA1        0.0237
     72 H38       -11.3360    2.5751   -2.4936 H       1  VEA1        0.0237
     73 H39        -9.6375    2.7463   -2.1284 H       1  VEA1        0.0237
     74 C           9.4555    0.6098   -2.4537 C.ar    1  CRO01      -0.0476
     75 C1          8.2082    0.1849   -1.9630 C.ar    1  CRO01      -0.0586
     76 C2          7.7777   -1.1369   -2.1134 C.ar    1  CRO01      -0.0615
     77 C3          8.5749   -2.0588   -2.7827 C.ar    1  CRO01      -0.0617
     78 C4          9.7907   -1.6520   -3.3197 C.ar    1  CRO01      -0.0615
     79 C5         10.2187   -0.3295   -3.1678 C.ar    1  CRO01      -0.0586
     80 C6          9.8895    2.0676   -2.2679 C.3     1  CRO01      -0.0305
     81 C7         10.7596    2.5762   -3.4404 C.3     1  CRO01      -0.0613
     82 H1          8.9507    2.6263   -2.4229 H       1  CRO01       0.0311
     83 H2         11.7999    2.2511   -3.3733 H       1  CRO01       0.0233
     84 H3         10.7611    3.6700   -3.4886 H       1  CRO01       0.0233
     85 H4         10.3628    2.2327   -4.4033 H       1  CRO01       0.0233
     86 H5         11.1695   -0.0595   -3.6198 H       1  CRO01       0.0620
     87 H6          8.2449   -3.0873   -2.8992 H       1  CRO01       0.0618
     88 H7         10.4142   -2.3629   -3.8561 H       1  CRO01       0.0618
     89 H8          7.5401    0.8858   -1.4670 H       1  CRO01       0.0620
     90 H9          6.8137   -1.4424   -1.7144 H       1  CRO01       0.0618
     91 C          12.6489   -0.5824   -0.4087 C.ar    1  CRO11      -0.0476
     92 C1         11.4709   -1.2817   -0.0806 C.ar    1  CRO11      -0.0586
     93 C2         11.4943   -2.6140    0.3374 C.ar    1  CRO11      -0.0615
     94 C3         12.7026   -3.2928    0.4153 C.ar    1  CRO11      -0.0617
     95 C4         13.8807   -2.6368    0.0724 C.ar    1  CRO11      -0.0615
     96 C5         13.8542   -1.2978   -0.3371 C.ar    1  CRO11      -0.0586
     97 C6         12.5725    0.8685   -0.9074 C.3     1  CRO11      -0.0305
     98 C7         13.9294    1.5927   -0.9547 C.3     1  CRO11      -0.0613
     99 H1         12.2554    0.7922   -1.9414 H       1  CRO11       0.0311
    100 H2         14.4097    1.6101    0.0302 H       1  CRO11       0.0233
    101 H3         13.8081    2.6279   -1.2914 H       1  CRO11       0.0233
    102 H4         14.6144    1.1111   -1.6607 H       1  CRO11       0.0233
    103 H5         14.8014   -0.8393   -0.6057 H       1  CRO11       0.0620
    104 H6         12.7248   -4.3318    0.7311 H       1  CRO11       0.0618
    105 H7         14.8271   -3.1696    0.1161 H       1  CRO11       0.0618
    106 H8         10.4991   -0.8021   -0.1617 H       1  CRO11       0.0620
    107 H9         10.5643   -3.1182    0.5870 H       1  CRO11       0.0618
    108 C         -10.3569   -1.4137   -3.0925 C.ar    1  CRO21      -0.0476
    109 C1        -11.2637   -1.9245   -4.0404 C.ar    1  CRO21      -0.0586
    110 C2        -11.3577   -3.2953   -4.2869 C.ar    1  CRO21      -0.0615
    111 C3        -10.5367   -4.1817   -3.5989 C.ar    1  CRO21      -0.0617
    112 C4         -9.6220   -3.6950   -2.6687 C.ar    1  CRO21      -0.0615
    113 C5         -9.5274   -2.3217   -2.4216 C.ar    1  CRO21      -0.0586
    114 C6        -10.2221    0.0940   -2.9453 C.3     1  CRO21      -0.0305
    115 C7         -8.8746    0.4930   -3.5920 C.3     1  CRO21      -0.0613
    116 H1        -10.9739    0.5300   -3.6153 H       1  CRO21       0.0311
    117 H2         -8.0168    0.1253   -3.0191 H       1  CRO21       0.0233
    118 H3         -8.7743    1.5761   -3.6983 H       1  CRO21       0.0233
    119 H4         -8.7901    0.0729   -4.6022 H       1  CRO21       0.0233
    120 H5         -8.7739   -1.9843   -1.7170 H       1  CRO21       0.0620
    121 H6        -10.6107   -5.2488   -3.7869 H       1  CRO21       0.0618
    122 H7         -8.9713   -4.3847   -2.1374 H       1  CRO21       0.0618
    123 H8        -11.9139   -1.2558   -4.6003 H       1  CRO21       0.0620
    124 H9        -12.0781   -3.6671   -5.0102 H       1  CRO21       0.0618
    125 C         -13.5527   -1.4395   -1.5888 C.ar    1  CRO31      -0.0476
    126 C1        -14.6879   -1.7738   -2.3530 C.ar    1  CRO31      -0.0586
    127 C2        -15.1092   -3.1004   -2.5082 C.ar    1  CRO31      -0.0615
    128 C3        -14.4132   -4.1322   -1.8923 C.ar    1  CRO31      -0.0617
    129 C4        -13.3015   -3.8336   -1.1171 C.ar    1  CRO31      -0.0615
    130 C5        -12.8844   -2.5060   -0.9608 C.ar    1  CRO31      -0.0586
    131 C6        -13.1778    0.0294   -1.3405 C.3     1  CRO31      -0.0305
    132 C7        -13.5792    0.9981   -2.4579 C.3     1  CRO31      -0.0613
    133 H1        -13.8614    0.2828   -0.5124 H       1  CRO31       0.0311
    134 H2        -13.3428    2.0296   -2.1857 H       1  CRO31       0.0233
    135 H3        -14.6611    0.9929   -2.6268 H       1  CRO31       0.0233
    136 H4        -13.1035    0.7539   -3.4098 H       1  CRO31       0.0233
    137 H5        -12.0106   -2.3517   -0.3362 H       1  CRO31       0.0620
    138 H6        -14.7368   -5.1619   -2.0093 H       1  CRO31       0.0618
    139 H7        -12.7454   -4.6305   -0.6300 H       1  CRO31       0.0618
    140 H8        -15.2904   -1.0080   -2.8316 H       1  CRO31       0.0620
    141 H9        -15.9915   -3.3218   -3.1026 H       1  CRO31       0.0618
@<TRIPOS>BOND
     1    72    70    1
     2    73    70    1
     3    70    71    1
     4    70    65    1
     5    50    49    1
     6    52    49    1
     7    49    51    1
     8    49    44    1
     9    65    64    1
    10    65    66    1
    11    67    66    1
    12    44    43    1
    13    44    46    1
    14    64    69    2
    15    64    61    1
    16    66    68    1
    17    47    46    1
    18    61    57    1
    19    59    54    1
    20    62    57    1
    21    38    33    1
    22    43    40    1
    23    43    45    2
    24    46    48    1
    25    40    36    1
    26    57    54    1
    27    57    63    1
    28    42    36    1
    29    54    58    1
    30    54    53    1
    31    60    58    1
    32    39    37    1
    33    36    33    1
    34    36    41    1
    35    33    37    1
    36    33    32    1
    37    55    53    1
    38    27    12    1
    39    24    20    1
    40    31    53    1
    41    31    19    1
    42    53    56    1
    43    30    32    1
    44    30    13    1
    45    34    32    1
    46    32    35    1
    47    12    13   ar
    48    12    11   ar
    49    20    19   ar
    50    20    21   ar
    51    19    18   ar
    52    13    14   ar
    53    26    11    1
    54    11    10   ar
    55    25    21    1
    56    21    16   ar
    57    18    23    1
    58    18    17   ar
    59    14    28    1
    60    14    15   ar
    61    16    17   ar
    62    16     1    1
    63    10    15   ar
    64    10     1    1
    65    17    22    1
    66    15    29    1
    67     1     2    1
    68     1     6    1
    69     5     2    1
    70     8     6    1
    71     2     3    1
    72     2     4    1
    73     6     9    1
    74     6     7    1
    75    82    80    1
    76    85    81    1
    77    89    75    1
    78    75    74   ar
    79    75    76   ar
    80    80    74    1
    81    80    81    1
    82    84    81    1
    83    90    76    1
    84    74    79   ar
    85    76    77   ar
    86    81    83    1
    87    77    87    1
    88    77    78   ar
    89    79    78   ar
    90    79    86    1
    91    78    88    1
    92    99    97    1
    93   102    98    1
    94   106    92    1
    95    92    91   ar
    96    92    93   ar
    97    97    91    1
    98    97    98    1
    99   101    98    1
   100   107    93    1
   101    91    96   ar
   102    93    94   ar
   103    98   100    1
   104    94   104    1
   105    94    95   ar
   106    96    95   ar
   107    96   103    1
   108    95   105    1
   109   116   114    1
   110   119   115    1
   111   123   109    1
   112   109   108   ar
   113   109   110   ar
   114   114   108    1
   115   114   115    1
   116   118   115    1
   117   124   110    1
   118   108   113   ar
   119   110   111   ar
   120   115   117    1
   121   111   121    1
   122   111   112   ar
   123   113   112   ar
   124   113   120    1
   125   112   122    1
   126   133   131    1
   127   136   132    1
   128   140   126    1
   129   126   125   ar
   130   126   127   ar
   131   131   125    1
   132   131   132    1
   133   135   132    1
   134   141   127    1
   135   125   130   ar
   136   127   128   ar
   137   132   134    1
   138   128   138    1
   139   128   129   ar
   140   130   129   ar
   141   130   137    1
   142   129   139    1
   143    80    44    1
   144    97    46    1
   145   114    65    1
   146   131    66    1
