@<TRIPOS>MOLECULE
DFA
 29 30 0 0 0
SMALL
GASTEIGER

@<TRIPOS>ATOM
      1 N          -0.0785   -3.0690    0.9769 N.3     1  DFA        -0.3237
      2 C           0.3498   -1.6950    1.2287 C.3     1  DFA         0.0521
      3 C           1.7819   -1.6758    1.6185 C.ar    1  DFA         0.1188
      4 O           2.0712   -1.6890    2.9547 O.2     1  DFA        -0.4629
      5 C           3.4341   -1.7283    3.0677 C.ar    1  DFA         0.1126
      6 C           4.0098   -1.7305    1.8135 C.ar    1  DFA        -0.0200
      7 C           2.9475   -1.6817    0.8819 C.ar    1  DFA        -0.0192
      8 C           4.0062   -1.7289    4.4434 C.3     1  DFA         0.0637
      9 C           4.1094   -3.0899    5.0405 C.ar    1  DFA         0.1126
     10 C           3.1712   -4.0239    5.4269 C.ar    1  DFA        -0.0200
     11 C           3.8865   -5.1087    5.9836 C.ar    1  DFA        -0.0192
     12 C           5.2234   -4.7833    5.8935 C.ar    1  DFA         0.1188
     13 O           5.3663   -3.5487    5.3247 O.2     1  DFA        -0.4629
     14 C           6.4701   -5.5044    6.2668 C.3     1  DFA         0.0521
     15 N           6.4804   -5.8486    7.6877 N.3     1  DFA        -0.3237
     16 H          -1.0753   -3.0797    0.7803 H       1  DFA         0.1186
     17 H           0.0558   -3.6018    1.8357 H       1  DFA         0.1186
     18 H          -0.2720   -1.2496    2.0134 H       1  DFA         0.0502
     19 H           0.2045   -1.1040    0.3196 H       1  DFA         0.0502
     20 H           5.0679   -1.7633    1.6003 H       1  DFA         0.0652
     21 H           3.0101   -1.6793   -0.1967 H       1  DFA         0.0652
     22 H           3.3893   -1.0995    5.0957 H       1  DFA         0.0423
     23 H           4.9985   -1.2621    4.4152 H       1  DFA         0.0423
     24 H           2.0983   -3.9246    5.3204 H       1  DFA         0.0652
     25 H           3.4893   -6.0210    6.4039 H       1  DFA         0.0652
     26 H           7.3519   -4.8975    6.0359 H       1  DFA         0.0502
     27 H           6.5414   -6.4256    5.6790 H       1  DFA         0.0502
     28 H           6.4384   -4.9847    8.2270 H       1  DFA         0.1186
     29 H           7.3741   -6.2810    7.9133 H       1  DFA         0.1186
@<TRIPOS>BOND
     1     1     2    1
     2     2     3    1
     3     3     4   ar
     4     4     5   ar
     5     5     6   ar
     6     6     7   ar
     7     3     7   ar
     8     5     8    1
     9     8     9    1
    10     9    10   ar
    11    10    11   ar
    12    11    12   ar
    13    12    13   ar
    14     9    13   ar
    15    12    14    1
    16    14    15    1
    17     1    16    1
    18     1    17    1
    19     2    18    1
    20     2    19    1
    21     6    20    1
    22     7    21    1
    23     8    22    1
    24     8    23    1
    25    10    24    1
    26    11    25    1
    27    14    26    1
    28    14    27    1
    29    15    28    1
    30    15    29    1
