@<TRIPOS>MOLECULE
DGE
 53 54 0 0 0
SMALL
GASTEIGER

@<TRIPOS>ATOM
      1 C           0.9438    0.1230    0.2033 C.3     1  DGE        -0.0517
      2 C           2.4850   -0.0391    0.0122 C.3     1  DGE         0.0151
      3 C           2.9383    1.2431   -0.7266 C.3     1  DGE        -0.0517
      4 C           3.0878   -0.1804    1.4300 C.ar    1  DGE        -0.0372
      5 C           2.7239   -1.2884    2.2146 C.ar    1  DGE        -0.0543
      6 C           3.1687   -1.4270    3.5314 C.ar    1  DGE        -0.0197
      7 C           4.0000   -0.4701    4.1092 C.ar    1  DGE         0.1206
      8 C           4.4032    0.6158    3.3365 C.ar    1  DGE        -0.0197
      9 C           3.9515    0.7638    2.0102 C.ar    1  DGE        -0.0543
     10 O           4.4613   -0.5014    5.4040 O.3     1  DGE        -0.4894
     11 C           3.9638   -1.5922    6.1954 C.3     1  DGE         0.1151
     12 C3          4.4702   -1.5091    7.6395 C.3     1  DGE         0.0864
     13 O1          5.8964   -1.5681    7.6690 O.3     1  DGE        -0.3887
     14 C1          4.0098   -0.2508    8.3592 C.3     1  DGE        -0.0357
     15 C           2.8409   -1.2531   -0.8825 C.ar    1  DGE        -0.0372
     16 C           1.8446   -2.0372   -1.4827 C.ar    1  DGE        -0.0543
     17 C           2.1555   -3.1339   -2.2908 C.ar    1  DGE        -0.0197
     18 C           3.4789   -3.4969   -2.5256 C.ar    1  DGE         0.1206
     19 C           4.4897   -2.7263   -1.9525 C.ar    1  DGE        -0.0197
     20 C           4.1769   -1.6178   -1.1382 C.ar    1  DGE        -0.0543
     21 O           3.8617   -4.5755   -3.2902 O.3     1  DGE        -0.4894
     22 C           2.7715   -5.3912   -3.7611 C.3     1  DGE         0.1151
     23 C4          3.2717   -6.6211   -4.5218 C.3     1  DGE         0.0864
     24 O2          4.0002   -6.2238   -5.6830 O.3     1  DGE        -0.3887
     25 C2          4.1434   -7.5282   -3.6695 C.3     1  DGE        -0.0357
     26 H           0.7070    0.9696    0.8584 H       1  DGE         0.0241
     27 H           0.4821   -0.7647    0.6520 H       1  DGE         0.0241
     28 H           0.4383    0.3036   -0.7529 H       1  DGE         0.0241
     29 H           2.6223    2.1455   -0.1862 H       1  DGE         0.0241
     30 H           2.4978    1.2988   -1.7296 H       1  DGE         0.0241
     31 H           4.0261    1.2941   -0.8474 H       1  DGE         0.0241
     32 H           2.0687   -2.0572    1.8116 H       1  DGE         0.0622
     33 H           2.8305   -2.3042    4.0741 H       1  DGE         0.0654
     34 H           5.0627    1.3691    3.7576 H       1  DGE         0.0654
     35 H           4.2864    1.6375    1.4608 H       1  DGE         0.0622
     36 H           4.3289   -2.5309    5.7613 H       1  DGE         0.0722
     37 H           2.8677   -1.5741    6.2107 H       1  DGE         0.0722
     38 H           4.0999   -2.3831    8.1857 H       1  DGE         0.0624
     39 H           6.2136   -0.9427    6.9905 H       1  DGE         0.2099
     40 H           4.4306    0.6499    7.9033 H       1  DGE         0.0256
     41 H           4.3517   -0.2681    9.4001 H       1  DGE         0.0256
     42 H           2.9177   -0.1734    8.3578 H       1  DGE         0.0256
     43 H           0.7895   -1.8255   -1.3447 H       1  DGE         0.0622
     44 H           1.3185   -3.6737   -2.7111 H       1  DGE         0.0654
     45 H           5.5306   -2.9820   -2.1270 H       1  DGE         0.0654
     46 H           4.9920   -1.0485   -0.7000 H       1  DGE         0.0622
     47 H           2.1609   -4.7932   -4.4488 H       1  DGE         0.0722
     48 H           2.1705   -5.7351   -2.9099 H       1  DGE         0.0722
     49 H           2.4011   -7.1895   -4.8678 H       1  DGE         0.0624
     50 H           4.6195   -5.5270   -5.3964 H       1  DGE         0.2099
     51 H           5.0712   -7.0299   -3.3736 H       1  DGE         0.0256
     52 H           4.4298   -8.4184   -4.2406 H       1  DGE         0.0256
     53 H           3.6113   -7.8531   -2.7697 H       1  DGE         0.0256
@<TRIPOS>BOND
     1     1     2    1
     2     2     3    1
     3     2     4    1
     4     4     5   ar
     5     5     6   ar
     6     6     7   ar
     7     7     8   ar
     8     8     9   ar
     9     4     9   ar
    10     7    10    1
    11    10    11    1
    12    11    12    1
    13    12    13    1
    14    12    14    1
    15     2    15    1
    16    15    16   ar
    17    16    17   ar
    18    17    18   ar
    19    18    19   ar
    20    19    20   ar
    21    15    20   ar
    22    18    21    1
    23    21    22    1
    24    22    23    1
    25    23    24    1
    26    23    25    1
    27     1    26    1
    28     1    27    1
    29     1    28    1
    30     3    29    1
    31     3    30    1
    32     3    31    1
    33     5    32    1
    34     6    33    1
    35     8    34    1
    36     9    35    1
    37    11    36    1
    38    11    37    1
    39    12    38    1
    40    13    39    1
    41    14    40    1
    42    14    41    1
    43    14    42    1
    44    16    43    1
    45    17    44    1
    46    19    45    1
    47    20    46    1
    48    22    47    1
    49    22    48    1
    50    23    49    1
    51    24    50    1
    52    25    51    1
    53    25    52    1
    54    25    53    1
