@<TRIPOS>MOLECULE
*****
 21 21 0 0 0
SMALL
GASTEIGER

@<TRIPOS>ATOM
      1 C          -2.8005    3.4216    0.0062 C.ar    1  mST        -0.0586
      2 C          -1.4377    3.7318    0.0087 C.ar    1  mST        -0.0583
      3 C          -3.2208    2.0841   -0.0007 C.ar    1  mST        -0.0504
      4 C          -2.2618    1.0628   -0.0050 C.ar    1  mST        -0.0586
      5 C          -0.8980    1.3711   -0.0025 C.ar    1  mST        -0.0583
      6 C          -0.4684    2.7149    0.0044 C.ar    1  mST        -0.0476
      7 C1          0.9911    3.1274    0.0075 C.3     1  mST        -0.0305
      8 C2          2.0003    1.9785    0.0025 C.3     1  mST        -0.0613
      9 H           1.1793    3.7455    0.9120 H       1  mST         0.0311
     10 H           1.1806    3.7544   -0.8907 H       1  mST         0.0311
     11 H           1.8755    1.3480    0.9084 H       1  mST         0.0233
     12 H           3.0308    2.3922    0.0053 H       1  mST         0.0233
     13 H           1.8768    1.3569   -0.9098 H       1  mST         0.0233
     14 C          -4.6799    1.7357   -0.0034 C.3     1  mST        -0.0397
     15 H          -5.3173    2.6454    0.0006 H       1  mST         0.0278
     16 H          -4.9215    1.1340    0.8980 H       1  mST         0.0278
     17 H          -4.9202    1.1429   -0.9111 H       1  mST         0.0278
     18 H          -3.5251    4.2264    0.0097 H       1  mST         0.0620
     19 H          -1.1358    4.7723    0.0141 H       1  mST         0.0620
     20 H          -0.1944    0.5509   -0.0061 H       1  mST         0.0620
     21 H          -2.5714    0.0248   -0.0104 H       1  mST         0.0620
@<TRIPOS>BOND
     1     1     2   ar
     2     1     3   ar
     3     3     4   ar
     4     4     5   ar
     5     2     6   ar
     6     6     5   ar
     7     6     7    1
     8     7     8    1
     9     7     9    1
    10     7    10    1
    11     8    11    1
    12     8    12    1
    13     8    13    1
    14     3    14    1
    15    14    15    1
    16    14    16    1
    17    14    17    1
    18     1    18    1
    19     2    19    1
    20     5    20    1
    21     4    21    1
