@<TRIPOS>MOLECULE
PAC
 41 42 0 0 0
SMALL
GASTEIGER

@<TRIPOS>ATOM
      1 C          -0.2443   -0.8676   -0.0829 C.3     1  PAC        -0.0488
      2 C          -0.0206   -2.3596    0.1619 C.3     1  PAC        -0.0375
      3 C2          1.1576   -2.8889   -0.6642 C.3     1  PAC         0.0049
      4 C           2.4284   -2.0701   -0.4145 C.3     1  PAC        -0.0375
      5 C           2.1850   -0.5807   -0.6674 C.3     1  PAC        -0.0488
      6 C           1.0169   -0.0159    0.1585 C.3     1  PAC        -0.0407
      7 C           1.3356    0.1124    1.6712 C.3     1  PAC        -0.0474
      8 C           2.4620    1.1198    2.0261 C.3     1  PAC        -0.0407
      9 C           2.1592    2.5621    1.5929 C.3     1  PAC        -0.0488
     10 C           0.9881    3.1615    2.3724 C.3     1  PAC        -0.0375
     11 C1          1.1933    3.1242    3.8935 C.3     1  PAC         0.0049
     12 C           1.6735    1.7501    4.3886 C.3     1  PAC        -0.0375
     13 C           2.7744    1.1179    3.5346 C.3     1  PAC        -0.0488
     14 N1          2.1248    4.1824    4.2922 N.3     1  PAC        -0.3272
     15 N2          1.3829   -4.2996   -0.3492 N.3     1  PAC        -0.3272
     16 H          -1.0718   -0.5098    0.5408 H       1  PAC         0.0268
     17 H          -0.5642   -0.7301   -1.1250 H       1  PAC         0.0268
     18 H          -0.9363   -2.9049   -0.1027 H       1  PAC         0.0280
     19 H           0.1502   -2.5342    1.2310 H       1  PAC         0.0280
     20 H           0.8962   -2.8226   -1.7265 H       1  PAC         0.0458
     21 H           3.2303   -2.4175   -1.0777 H       1  PAC         0.0280
     22 H           2.7873   -2.2165    0.6117 H       1  PAC         0.0280
     23 H           1.9579   -0.4430   -1.7331 H       1  PAC         0.0268
     24 H           3.1069   -0.0204   -0.4851 H       1  PAC         0.0268
     25 H           0.7865    0.9840   -0.2259 H       1  PAC         0.0301
     26 H           1.6096   -0.8690    2.0758 H       1  PAC         0.0271
     27 H           0.4132    0.3933    2.1935 H       1  PAC         0.0271
     28 H           3.3768    0.7960    1.5160 H       1  PAC         0.0301
     29 H           1.9571    2.6170    0.5191 H       1  PAC         0.0268
     30 H           3.0548    3.1763    1.7531 H       1  PAC         0.0268
     31 H           0.0678    2.6200    2.1231 H       1  PAC         0.0280
     32 H           0.8216    4.1933    2.0378 H       1  PAC         0.0280
     33 H           0.2338    3.3503    4.3742 H       1  PAC         0.0458
     34 H           0.8148    1.0691    4.4186 H       1  PAC         0.0280
     35 H           2.0269    1.8247    5.4260 H       1  PAC         0.0280
     36 H           2.9608    0.0925    3.8785 H       1  PAC         0.0268
     37 H           3.7115    1.6661    3.6991 H       1  PAC         0.0268
     38 H           3.0614    3.9817    3.9462 H       1  PAC         0.1185
     39 H           2.1947    4.2101    5.3079 H       1  PAC         0.1185
     40 H           1.6274   -4.4011    0.6349 H       1  PAC         0.1185
     41 H           2.1872   -4.6417   -0.8738 H       1  PAC         0.1185
@<TRIPOS>BOND
     1     1     2    1
     2     2     3    1
     3     3     4    1
     4     4     5    1
     5     5     6    1
     6     1     6    1
     7     6     7    1
     8     7     8    1
     9     8     9    1
    10     9    10    1
    11    10    11    1
    12    11    12    1
    13    12    13    1
    14     8    13    1
    15    11    14    1
    16     3    15    1
    17     1    16    1
    18     1    17    1
    19     2    18    1
    20     2    19    1
    21     3    20    1
    22     4    21    1
    23     4    22    1
    24     5    23    1
    25     5    24    1
    26     6    25    1
    27     7    26    1
    28     7    27    1
    29     8    28    1
    30     9    29    1
    31     9    30    1
    32    10    31    1
    33    10    32    1
    34    11    33    1
    35    12    34    1
    36    12    35    1
    37    13    36    1
    38    13    37    1
    39    14    38    1
    40    14    39    1
    41    15    40    1
    42    15    41    1
