@<TRIPOS>MOLECULE
*****
 41 42 0 0 0
SMALL
GASTEIGER

@<TRIPOS>ATOM
      1 C          -3.4658    3.2143    0.5143 C.3     1  PAC       -0.0488
      2 C          -4.8793    2.7911    0.1052 C.3     1  PAC       -0.0375
      3 C          -5.1827    1.3827    0.6306 C.3     1  PAC        0.0049
      4 H          -4.9623    2.8115   -1.0044 H       1  PAC        0.0280
      5 H          -5.6131    3.5138    0.5229 H       1  PAC        0.0280
      6 C          -4.1429    0.3909    0.0782 C.3     1  PAC       -0.0375
      7 C          -2.3918    2.2390   -0.0356 C.3     1  PAC       -0.0407
      8 H          -3.4040    3.2541    1.6252 H       1  PAC        0.0268
      9 H          -3.2883    4.2398    0.1228 H       1  PAC        0.0268
     10 C          -2.7165    0.8126    0.4723 C.3     1  PAC       -0.0488
     11 H          -2.6162    0.7777    1.5797 H       1  PAC        0.0268
     12 H          -2.0500    0.0629    0.0256 H       1  PAC        0.0268
     13 H          -4.2172    0.3510   -1.0316 H       1  PAC        0.0280
     14 H          -4.3467   -0.6272    0.4754 H       1  PAC        0.0280
     15 C          -0.9963    2.7925    0.3795 C.3     1  PAC       -0.0474
     16 H          -2.4565    2.2519   -1.1469 H       1  PAC        0.0301
     17 C           0.2914    2.2165   -0.2793 C.3     1  PAC       -0.0407
     18 H          -0.8900    2.8001    1.4870 H       1  PAC        0.0271
     19 H          -1.0252    3.8553    0.0501 H       1  PAC        0.0271
     20 C           0.7308    0.8295    0.2583 C.3     1  PAC       -0.0488
     21 C           2.0529    0.3764   -0.3885 C.3     1  PAC       -0.0375
     22 H          -0.0025    0.0465    0.0298 H       1  PAC        0.0268
     23 H           0.8570    0.8784    1.3619 H       1  PAC        0.0268
     24 C           1.4444    3.2259   -0.0317 C.3     1  PAC       -0.0488
     25 H           0.1297    2.1572   -1.3790 H       1  PAC        0.0301
     26 C           2.7497    2.7631   -0.6907 C.3     1  PAC       -0.0375
     27 H           1.6057    3.3558    1.0616 H       1  PAC        0.0268
     28 H           1.1796    4.2184   -0.4573 H       1  PAC        0.0268
     29 C           3.1809    1.3939   -0.1425 C.3     1  PAC        0.0049
     30 H           3.5490    3.5139   -0.5100 H       1  PAC        0.0280
     31 H           2.5947    2.6902   -1.7900 H       1  PAC        0.0280
     32 H           1.8967    0.2655   -1.4846 H       1  PAC        0.0280
     33 H           2.3482   -0.6174    0.0124 H       1  PAC        0.0280
     34 N          -6.5398    0.9904    0.2481 N.3     1  PAC       -0.3272
     35 H          -5.1202    1.3942    1.7422 H       1  PAC        0.0458
     36 N           3.4889    1.4865    1.2871 N.3     1  PAC       -0.3272
     37 H           4.0957    1.0615   -0.6827 H       1  PAC        0.0458
     38 H          -6.6237    0.9385   -0.7934 H       1  PAC        0.1185
     39 H          -6.7597    0.0507    0.6502 H       1  PAC        0.1185
     40 H           3.8318    0.5585    1.6254 H       1  PAC        0.1185
     41 H           4.2628    2.1753    1.4296 H       1  PAC        0.1185
@<TRIPOS>BOND
     1     1     2    1
     2     2     3    1
     3     2     4    1
     4     2     5    1
     5     3     6    1
     6     1     7    1
     7     1     8    1
     8     1     9    1
     9     7    10    1
    10    10     6    1
    11    10    11    1
    12    10    12    1
    13     6    13    1
    14     6    14    1
    15     7    15    1
    16     7    16    1
    17    15    17    1
    18    15    18    1
    19    15    19    1
    20    17    20    1
    21    20    21    1
    22    20    22    1
    23    20    23    1
    24    17    24    1
    25    17    25    1
    26    24    26    1
    27    24    27    1
    28    24    28    1
    29    26    29    1
    30    26    30    1
    31    26    31    1
    32    29    21    1
    33    21    32    1
    34    21    33    1
    35     3    34    1
    36     3    35    1
    37    29    36    1
    38    29    37    1
    39    34    38    1
    40    34    39    1
    41    36    40    1
    42    36    41    1

