@<TRIPOS>MOLECULE
*****
 77 78 0 0 0
SMALL
GASTEIGER

@<TRIPOS>ATOM
      1 C          -4.8085    2.7733    0.7984 C.3     1  GMA        -0.0525
      2 C1         -3.3626    2.3573    0.4847 C.3     1  GMA         0.0508
      3 H          -5.4989    1.9190    0.6321 H       1  GMA         0.0237
      4 H          -5.1250    3.6173    0.1474 H       1  GMA         0.0237
      5 H          -4.8969    3.0860    1.8608 H       1  GMA         0.0237
      6 C          -2.3761    3.4772    0.7396 C.2     1  GMA         0.3097
      7 O          -1.0547    3.2536    0.5173 O.3     1  GMA        -0.4617
      8 C          -0.0653    4.1845    0.7645 C.3     1  GMA         0.1215
      9 C2         -3.2585    1.8856   -0.9697 C.3     1  GMA        -0.0525
     10 C           1.2938    3.6430    0.3030 C.3     1  GMA         0.1230
     11 H          -0.0367    4.4203    1.8515 H       1  GMA         0.0725
     12 H          -0.2903    5.1158    0.1977 H       1  GMA         0.0725
     13 C           2.3910    4.6862    0.5330 C.3     1  GMA         0.1186
     14 O           3.5878    4.2394    0.0048 O.3     1  GMA        -0.4893
     15 H           2.4992    4.8876    1.6217 H       1  GMA         0.0724
     16 H           2.1034    5.6272    0.0125 H       1  GMA         0.0724
     17 C           4.7456    4.9507   -0.0298 C.ar    1  GMA         0.1206
     18 C           4.9039    6.1745    0.6436 C.ar    1  GMA        -0.0197
     19 C           6.0991    6.8914    0.5452 C.ar    1  GMA        -0.0543
     20 C           7.1766    6.4136   -0.2389 C.ar    1  GMA        -0.0372
     21 C           5.8098    4.4541   -0.7853 C.ar    1  GMA        -0.0197
     22 C           8.4921    7.2106   -0.4425 C.3     1  GMA         0.0151
     23 C           8.5889    7.5182   -1.9600 C.3     1  GMA        -0.0517
     24 H           8.6851    6.5907   -2.5612 H       1  GMA         0.0241
     25 H           9.4590    8.1603   -2.2047 H       1  GMA         0.0241
     26 H           7.6809    8.0619   -2.3015 H       1  GMA         0.0241
     27 C           8.4659    8.5678    0.3076 C.3     1  GMA        -0.0517
     28 H           7.6076    9.1917   -0.0228 H       1  GMA         0.0241
     29 H           9.3814    9.1647    0.1141 H       1  GMA         0.0241
     30 H           8.3999    8.4043    1.4053 H       1  GMA         0.0241
     31 C           9.7548    6.4480    0.0242 C.ar    1  GMA        -0.0372
     32 C           9.7063    5.2204    0.7262 C.ar    1  GMA        -0.0543
     33 C          10.8819    4.5726    1.1288 C.ar    1  GMA        -0.0197
     34 C          11.0308    6.9946   -0.2402 C.ar    1  GMA        -0.0543
     35 C          12.1979    6.3446    0.1556 C.ar    1  GMA        -0.0197
     36 C          12.1365    5.1224    0.8457 C.ar    1  GMA         0.1206
     37 O          13.2531    4.4591    1.2519 O.3     1  GMA        -0.4893
     38 C          14.5511    4.8431    0.9649 C.3     1  GMA         0.1186
     39 C          15.5557    3.8924    1.6223 C.3     1  GMA         0.1230
     40 H          14.7300    5.8694    1.3558 H       1  GMA         0.0724
     41 H          14.6990    4.8387   -0.1383 H       1  GMA         0.0724
     42 C          16.9871    4.3286    1.2792 C.3     1  GMA         0.1215
     43 O          17.9026    3.5287    1.9334 O.3     1  GMA        -0.4617
     44 H          17.1412    5.3839    1.5969 H       1  GMA         0.0725
     45 H          17.1410    4.2570    0.1789 H       1  GMA         0.0725
     46 C          19.2480    3.6579    1.7938 C.2     1  GMA         0.3097
     47 C3         20.1608    2.8025    2.6460 C.3     1  GMA         0.0508
     48 C4         19.8730    1.3181    2.3998 C.3     1  GMA        -0.0525
     49 C          21.6463    3.1005    2.3871 C.3     1  GMA        -0.0525
     50 H          21.8658    4.1694    2.5963 H       1  GMA         0.0237
     51 H          21.9143    2.8784    1.3312 H       1  GMA         0.0237
     52 H          22.2844    2.4817    3.0534 H       1  GMA         0.0237
     53 O          -2.7599    4.5700    1.1380 O.2     1  GMA        -0.2506
     54 O           1.6167    2.4699    1.0045 O.3     1  GMA        -0.3850
     55 H           1.2464    3.4396   -0.7936 H       1  GMA         0.0662
     56 H           1.1591    1.7204    0.5413 H       1  GMA         0.2101
     57 O          15.3288    2.5851    1.1622 O.3     1  GMA        -0.3850
     58 H          15.3972    3.9475    2.7254 H       1  GMA         0.0662
     59 H          15.7077    1.9696    1.8430 H       1  GMA         0.2101
     60 O          19.7123    4.4643    0.9969 O.2     1  GMA        -0.2506
     61 H           4.1035    6.5912    1.2400 H       1  GMA         0.0654
     62 H           6.1466    7.8291    1.0773 H       1  GMA         0.0622
     63 C           7.0031    5.1732   -0.8952 C.ar    1  GMA        -0.0543
     64 H           7.7941    4.7592   -1.5068 H       1  GMA         0.0622
     65 H           5.7053    3.5131   -1.3109 H       1  GMA         0.0654
     66 H          11.1404    7.9339   -0.7630 H       1  GMA         0.0622
     67 H          13.1449    6.8099   -0.0815 H       1  GMA         0.0654
     68 H           8.7690    4.7497    0.9822 H       1  GMA         0.0622
     69 H          10.8152    3.6341    1.6651 H       1  GMA         0.0654
     70 H          -3.0951    1.5075    1.1498 H       1  GMA         0.0408
     71 H          -3.5133    2.7102   -1.6699 H       1  GMA         0.0237
     72 H          -3.9529    1.0366   -1.1476 H       1  GMA         0.0237
     73 H          -2.2274    1.5347   -1.1894 H       1  GMA         0.0237
     74 H          19.9450    3.0308    3.7125 H       1  GMA         0.0408
     75 H          20.5136    0.6906    3.0559 H       1  GMA         0.0237
     76 H          20.0728    1.0499    1.3400 H       1  GMA         0.0237
     77 H          18.8121    1.0863    2.6348 H       1  GMA         0.0237
@<TRIPOS>BOND
     1     1     2    1
     2     1     3    1
     3     1     4    1
     4     1     5    1
     5     2     6    1
     6     6     7    1
     7     7     8    1
     8     2     9    1
     9     8    10    1
    10     8    11    1
    11     8    12    1
    12    10    13    1
    13    13    14    1
    14    13    15    1
    15    13    16    1
    16    14    17    1
    17    17    18   ar
    18    18    19   ar
    19    19    20   ar
    20    17    21   ar
    21    20    22    1
    22    22    23    1
    23    23    24    1
    24    23    25    1
    25    23    26    1
    26    22    27    1
    27    27    28    1
    28    27    29    1
    29    27    30    1
    30    22    31    1
    31    31    32   ar
    32    32    33   ar
    33    31    34   ar
    34    34    35   ar
    35    35    36   ar
    36    33    36   ar
    37    36    37    1
    38    37    38    1
    39    38    39    1
    40    38    40    1
    41    38    41    1
    42    39    42    1
    43    42    43    1
    44    42    44    1
    45    42    45    1
    46    43    46    1
    47    46    47    1
    48    47    48    1
    49    47    49    1
    50    49    50    1
    51    49    51    1
    52    49    52    1
    53     6    53    2
    54    10    54    1
    55    10    55    1
    56    54    56    1
    57    39    57    1
    58    39    58    1
    59    57    59    1
    60    46    60    2
    61    18    61    1
    62    19    62    1
    63    20    63   ar
    64    63    21   ar
    65    63    64    1
    66    21    65    1
    67    34    66    1
    68    35    67    1
    69    32    68    1
    70    33    69    1
    71     2    70    1
    72     9    71    1
    73     9    72    1
    74     9    73    1
    75    47    74    1
    76    48    75    1
    77    48    76    1
    78    48    77    1
