@<TRIPOS>MOLECULE
*****
 37 38 0 0 0
SMALL
GASTEIGER

@<TRIPOS>ATOM
      1 C          25.1400   24.1200   28.3800 C.3     1  VEA1        0.0377
      2 C1         25.3600   25.3900   29.2600 C.3     1  VEA1        0.0088
      3 C2         24.9200   22.9400   29.3600 C.3     1  VEA1        0.0088
      4 C3         26.4000   23.9600   27.5200 C.ar    1  VEA1       -0.0188
      5 C4         26.5900   24.8100   26.4100 C.ar    1  VEA1       -0.0009
      6 C5         27.7600   24.7500   25.6300 C.ar    1  VEA1        0.0366
      7 C6         28.7700   23.8400   25.9500 C.ar    1  VEA1        0.1387
      8 C7         28.6000   22.9800   27.0500 C.ar    1  VEA1        0.0366
      9 C8         27.4300   23.0400   27.8300 C.ar    1  VEA1       -0.0009
     10 C9         23.8900   24.2100   27.4900 C.ar    1  VEA1       -0.0188
     11 C10        22.9300   25.2400   27.6200 C.ar    1  VEA1       -0.0009
     12 C11        21.7700   25.2500   26.8200 C.ar    1  VEA1        0.0366
     13 C12        21.5500   24.2200   25.8800 C.ar    1  VEA1        0.1387
     14 C13        22.5000   23.2000   25.7400 C.ar    1  VEA1        0.0366
     15 C14        23.6600   23.2000   26.5400 C.ar    1  VEA1       -0.0009
     16 O          29.9200   23.8400   25.1900 O.3     1  VEA1       -0.4726
     17 O1         20.4200   24.1700   25.0900 O.3     1  VEA1       -0.4726
     18 C15        31.1100   23.1300   25.5700 C.3     1  VEA1        0.2419
     19 C16        32.2500   23.4500   24.5700 C.3     1  VEA1        0.2387
     20 C17        32.5500   24.9600   24.5300 C.3     1  VEA1        0.2450
     21 O2         33.4300   22.7500   24.9600 O.3     1  VEA1       -0.2151
     22 O3         33.7300   25.1600   23.7200 O.3     1  VEA1       -0.4456
     23 C18        34.1800   26.4400   23.5800 C.2     1  VEA1        0.3165
     24 C19        35.4500   26.5000   22.7200 C.3     1  VEA1        0.0991
     25 O4         33.6500   27.4200   24.0700 O.2     1  VEA1       -0.2501
     26 C20        36.6500   26.9500   23.5800 C.3     1  VEA1        0.0116
     27 C21        35.2400   27.4400   21.5100 C.3     1  VEA1        0.0116
     28 C22        19.4000   25.1800   25.1200 C.3     1  VEA1        0.2419
     29 C23        18.2400   24.7600   24.1900 C.3     1  VEA1        0.2387
     30 C24        17.3000   25.9500   23.9000 C.3     1  VEA1        0.2450
     31 O5         17.4600   23.7300   24.8100 O.3     1  VEA1       -0.2151
     32 O6         16.1800   25.4800   23.1200 O.3     1  VEA1       -0.4456
     33 C25        15.2200   26.3900   22.7800 C.2     1  VEA1        0.3165
     34 C26        14.0900   25.7400   21.9800 C.3     1  VEA1        0.0991
     35 C27        12.7700   25.8000   22.7900 C.3     1  VEA1        0.0116
     36 O7         15.2600   27.5700   23.0700 O.2     1  VEA1       -0.2501
     37 C28        13.9300   26.4200   20.6100 C.3     1  VEA1        0.0116
@<TRIPOS>BOND
     1    37    34    1
     2    27    24    1
     3    34    33    1
     4    34    35    1
     5    24    23    1
     6    24    26    1
     7    33    36    2
     8    33    32    1
     9    32    30    1
    10    23    22    1
    11    23    25    2
    12    22    20    1
    13    30    29    1
    14    29    31    1
    15    29    28    1
    16    20    19    1
    17    19    21    1
    18    19    18    1
    19    17    28    1
    20    17    13    1
    21    16    18    1
    22    16     7    1
    23     6     7   ar
    24     6     5   ar
    25    14    13   ar
    26    14    15   ar
    27    13    12   ar
    28     7     8   ar
    29     5     4   ar
    30    15    10   ar
    31    12    11   ar
    32     8     9   ar
    33    10    11   ar
    34    10     1    1
    35     4     9   ar
    36     4     1    1
    37     1     2    1
    38     1     3    1
