@<TRIPOS>MOLECULE
DFA+FDE+FDE+FDE+FDE
   157   162  1  0  0
SMALL
gas

@<TRIPOS>ATOM
      1 N1         94.3800   99.0900   99.0100 n3      1  DFA       -0.3248
      2 C          95.1900  100.1400   98.3300 c3      1  DFA        0.0403
      3 C1         96.6800   99.9500   98.4400 cc      1  DFA        0.0725
      4 H          94.9600  101.1100   98.7800 h1      1  DFA        0.0498
      5 H1         94.9200  100.2000   97.2700 h1      1  DFA        0.0498
      6 O          97.3600  100.3800   99.5600 os      1  DFA       -0.3174
      7 C2         97.4800   99.4900   97.4300 cd      1  DFA       -0.0319
      8 C3         98.6500  100.1400   99.1800 cc      1  DFA        0.0654
      9 C4         98.8000   99.6200   97.9200 cd      1  DFA       -0.0327
     10 C5         99.7800  100.5300  100.1100 c3      1  DFA        0.0418
     11 C6        101.1400  100.0100   99.7100 cc      1  DFA        0.0654
     12 H2         99.5500  100.1700  101.1200 hc      1  DFA        0.0409
     13 H3         99.8200  101.6200  100.1900 hc      1  DFA        0.0409
     14 C7        101.4800   98.6800   99.6600 cd      1  DFA       -0.0327
     15 C8        102.8700   98.6800   99.3400 cd      1  DFA       -0.0319
     16 O1        102.1700  100.8700   99.4700 os      1  DFA       -0.3174
     17 C9        103.2000  100.0000   99.2500 cc      1  DFA        0.0725
     18 C10       104.6100  100.5200   99.0700 c3      1  DFA        0.0403
     19 N2        105.5500  100.0300  100.1100 n3      1  DFA       -0.3248
     20 H4        104.6000  101.6100   99.0700 h1      1  DFA        0.0498
     21 H5        104.9600  100.2000   98.0800 h1      1  DFA        0.0498
     22 H10        97.1700   99.1400   96.4500 ha      1  DFA        0.0648
     23 H11        99.7200   99.3800   97.4000 ha      1  DFA        0.0648
     24 H12       100.8500   97.8200   99.8500 ha      1  DFA        0.0648
     25 H13       103.5200   97.8200   99.2500 ha      1  DFA        0.0648
     26 O          87.7700  100.5600  102.6000 os      2  FDE       -0.3212
     27 C          88.2400  100.9300  103.8400 cc      2  FDE        0.0455
     28 C3         89.5900  101.1300  103.8800 cd      2  FDE       -0.0364
     29 C4         88.9200  100.5400  101.8600 cc      2  FDE        0.0725
     30 C5         90.0500  100.8700  102.5600 cd      2  FDE       -0.0322
     31 C6         88.8800  100.2600  100.3800 c3      2  FDE        0.0457
     32 N          90.0500   99.4800   99.9100 n3      2  FDE       -0.2919
     33 H          88.8500  101.2300   99.8800 h1      2  FDE        0.0503
     34 H1         87.9500   99.7400  100.1300 h1      2  FDE        0.0503
     35 C7         90.5700  100.0000   98.6200 c3      2  FDE        0.0245
     36 C8         89.8900   98.0000   99.9400 c3      2  FDE        0.0245
     37 C9         89.4800   97.4100  101.3200 c3      2  FDE        0.0639
     38 H2         90.8300   97.5300   99.6600 h1      2  FDE        0.0458
     39 H3         89.1400   97.6900   99.2000 h1      2  FDE        0.0458
     40 C1         89.9700   95.9600  101.4900 c3      2  FDE       -0.0377
     41 H4         89.5200   95.3100  100.7300 hc      2  FDE        0.0257
     42 H5         89.6900   95.5700  102.4800 hc      2  FDE        0.0257
     43 H6         91.0600   95.9000  101.3900 hc      2  FDE        0.0257
     44 O1         88.0600   97.4300  101.4600 oh      2  FDE       -0.3921
     45 H7         89.9400   98.0200  102.1100 h1      2  FDE        0.0611
     46 C10        91.9500   99.4500   98.1900 c3      2  FDE        0.0639
     47 H8         90.6700  101.0900   98.7000 h1      2  FDE        0.0458
     48 H9         89.8400   99.8000   97.8200 h1      2  FDE        0.0458
     49 O2         92.3800  100.1700   97.0300 oh      2  FDE       -0.3921
     50 C2         93.0000   99.5300   99.3400 c3      2  FDE       -0.0377
     51 H10        91.8200   98.3900   97.9100 h1      2  FDE        0.0611
     52 H11        93.0200  100.5500   99.7300 hc      2  FDE        0.0257
     53 H13        92.6400   98.8900  100.1500 hc      2  FDE        0.0257
     54 H14        92.5100  101.0900   97.3000 ho      2  FDE        0.2105
     55 H15        87.8500   97.3100  102.4000 ho      2  FDE        0.2105
     56 H16        87.5000  101.0200  104.6200 h4      2  FDE        0.0902
     57 H17        90.1900  101.4300  104.7300 ha      2  FDE        0.0645
     58 H18        91.0700  100.9500  102.1900 ha      2  FDE        0.0648
     59 O          93.0800   95.9900  104.5400 os      3  FDE       -0.3212
     60 C          92.1300   96.8400  105.0400 cc      3  FDE        0.0455
     61 C3         91.8500   97.9000  104.2200 cd      3  FDE       -0.0364
     62 C4         93.4100   96.6000  103.3600 cc      3  FDE        0.0725
     63 C5         92.6900   97.7400  103.0900 cd      3  FDE       -0.0322
     64 C6         94.4000   95.9400  102.4200 c3      3  FDE        0.0457
     65 N          94.9700   96.8300  101.3700 n3      3  FDE       -0.2919
     66 H          93.8500   95.1200  101.9500 h1      3  FDE        0.0503
     67 H1         95.2000   95.4900  103.0100 h1      3  FDE        0.0503
     68 C7         95.2600   96.0400  100.1400 c3      3  FDE        0.0245
     69 C8         96.1400   97.6500  101.7900 c3      3  FDE        0.0245
     70 C9         95.9900   98.5000  103.0800 c3      3  FDE        0.0639
     71 H2         96.3800   98.3500  100.9800 h1      3  FDE        0.0458
     72 H3         97.0200   97.0000  101.9200 h1      3  FDE        0.0458
     73 C1         97.0300   99.6400  103.1100 c3      3  FDE       -0.0377
     74 H4         98.0500   99.2500  103.0500 hc      3  FDE        0.0257
     75 H5         96.9400  100.2300  104.0300 hc      3  FDE        0.0257
     76 H6         96.8800  100.3300  102.2600 hc      3  FDE        0.0257
     77 O1         96.1800   97.7000  104.2400 oh      3  FDE       -0.3921
     78 H7         95.0000   98.9600  103.0800 h1      3  FDE        0.0611
     79 C10        95.6200   96.8700   98.8800 c3      3  FDE        0.0639
     80 H8         94.3900   95.4300   99.8900 h1      3  FDE        0.0458
     81 H9         96.0900   95.3500  100.3500 h1      3  FDE        0.0458
     82 O2         95.9900   95.9600   97.8400 oh      3  FDE       -0.3921
     83 C2         94.4500   97.7400   98.3900 c3      3  FDE       -0.0377
     84 H10        96.5000   97.4900   99.0900 h1      3  FDE        0.0611
     85 H11        93.5300   97.1900   98.6100 hc      3  FDE        0.0257
     86 H12        94.5000   97.8500   97.3000 hc      3  FDE        0.0257
     87 H14        95.2100   95.4000   97.6500 ho      3  FDE        0.2105
     88 H15        95.9300   98.2300  105.0100 ho      3  FDE        0.2105
     89 H16        91.7100   96.5700  106.0100 h4      3  FDE        0.0902
     90 H17        91.1300   98.6900  104.3900 ha      3  FDE        0.0645
     91 H18        92.7400   98.3700  102.2200 ha      3  FDE        0.0648
     92 O         111.9000  102.5400   96.7900 os      4  FDE       -0.3212
     93 C         111.3400  103.1100   95.6800 cc      4  FDE        0.0455
     94 C3        110.0000  102.8500   95.5300 cd      4  FDE       -0.0364
     95 C4        110.8300  101.8800   97.3400 cc      4  FDE        0.0725
     96 C5        109.6500  102.0400   96.6400 cd      4  FDE       -0.0322
     97 C6        110.9700  101.1500   98.6500 c3      4  FDE        0.0457
     98 N         109.9300  100.1000   98.8500 n3      4  FDE       -0.2919
     99 H         110.9000  101.9100   99.4400 h1      4  FDE        0.0503
    100 H1        111.9700  100.7200   98.7300 h1      4  FDE        0.0503
    101 C7        109.4800  100.0500  100.2600 c3      4  FDE        0.0245
    102 C8        110.2800   98.7500   98.3200 c3      4  FDE        0.0245
    103 C9        110.7400   98.6900   96.8400 c3      4  FDE        0.0639
    104 H2        109.4000   98.1100   98.4100 h1      4  FDE        0.0458
    105 H3        111.0700   98.3100   98.9400 h1      4  FDE        0.0458
    106 C1        110.5800   97.2700   96.2600 c3      4  FDE       -0.0377
    107 H4        111.1700   96.5500   96.8400 hc      4  FDE        0.0257
    108 H5        110.9100   97.2300   95.2200 hc      4  FDE        0.0257
    109 H6        109.5300   96.9600   96.2900 hc      4  FDE        0.0257
    110 O1        112.1200   99.0500   96.7300 oh      4  FDE       -0.3921
    111 H7        110.1200   99.3700   96.2400 h1      4  FDE        0.0611
    112 C10       108.0700   99.4300  100.4600 c3      4  FDE        0.0639
    113 H8        109.4400  101.0600  100.6800 h1      4  FDE        0.0458
    114 H9        110.2100   99.4800  100.8600 h1      4  FDE        0.0458
    115 O2        107.8800   99.2700  101.8600 oh      4  FDE       -0.3921
    116 C2        106.9800  100.3200   99.7800 c3      4  FDE       -0.0377
    117 H10       108.0300   98.4400  100.0000 h1      4  FDE        0.0611
    118 H11       107.1900  101.3700   99.9800 hc      4  FDE        0.0257
    119 H13       107.1200  100.1900   98.7000 hc      4  FDE        0.0257
    120 H14       107.7400  100.1500  102.2600 ho      4  FDE        0.2105
    121 H15       112.3200   99.2000   95.7900 ho      4  FDE        0.2105
    122 H16       112.0100  103.7000   95.0600 h4      4  FDE        0.0902
    123 H17       109.3500  103.1900   94.7400 ha      4  FDE        0.0645
    124 H18       108.6800  101.6400   96.8900 ha      4  FDE        0.0648
    125 O         101.7900  104.2200   99.8100 os      5  FDE       -0.3212
    126 C         101.1200  103.8200   98.6800 cc      5  FDE        0.0455
    127 C3        101.9500  103.5500   97.6100 cd      5  FDE       -0.0364
    128 C4        103.0900  104.1700   99.3800 cc      5  FDE        0.0725
    129 C5        103.2600  103.8000   98.0800 cd      5  FDE       -0.0322
    130 C6        104.2100  104.6700  100.2600 c3      5  FDE        0.0457
    131 N         105.2000  103.6100  100.5900 n3      5  FDE       -0.2919
    132 H         103.7900  105.0900  101.1800 h1      5  FDE        0.0503
    133 H1        104.6800  105.5000   99.7300 h1      5  FDE        0.0503
    134 C7        104.7600  102.8600  101.8000 c3      5  FDE        0.0245
    135 C8        106.5900  104.1200  100.6100 c3      5  FDE        0.0245
    136 C9        107.2200  104.2300   99.1900 c3      5  FDE        0.0639
    137 H2        107.2400  103.4500  101.1800 h1      5  FDE        0.0458
    138 H3        106.6300  105.1000  101.1100 h1      5  FDE        0.0458
    139 C1        108.7500  104.3300   99.2700 c3      5  FDE       -0.0377
    140 H4        109.0600  105.2100   99.8600 hc      5  FDE        0.0257
    141 H5        109.1900  104.4300   98.2700 hc      5  FDE        0.0257
    142 H6        109.1700  103.4400   99.7400 hc      5  FDE        0.0257
    143 O1        106.7300  105.3700   98.4800 oh      5  FDE       -0.3921
    144 H7        106.9600  103.3200   98.6300 h1      5  FDE        0.0611
    145 C10       105.5700  101.5900  102.1900 c3      5  FDE        0.0639
    146 H8        103.7100  102.5600  101.6700 h1      5  FDE        0.0458
    147 H9        104.7900  103.5500  102.6500 h1      5  FDE        0.0458
    148 O2        105.4600  101.4200  103.6000 oh      5  FDE       -0.3921
    149 C2        105.1100  100.2700  101.5100 c3      5  FDE       -0.0377
    150 H10       106.6300  101.7400  101.9900 h1      5  FDE        0.0611
    151 H11       104.0100  100.2100  101.5900 hc      5  FDE        0.0257
    152 H12       105.4700   99.4400  102.1300 hc      5  FDE        0.0257
    153 H14       104.5200  101.2400  103.8000 ho      5  FDE        0.2105
    154 H15       107.1400  105.3700   97.6000 ho      5  FDE        0.2105
    155 H16       100.0400  103.7600   98.7500 h4      5  FDE        0.0902
    156 H17       101.6600  103.2400   96.6100 ha      5  FDE        0.0645
    157 H18       104.1900  103.7300   97.5200 ha      5  FDE        0.0648
@<TRIPOS>BOND
     1     1     2    1
     2     2     3    1
     3     2     4    1
     4     2     5    1
     5     3     6    1
     6     3     7    2
     7     6     8    1
     8     8     9    2
     9     7     9    1
    10     8    10    1
    11    10    11    1
    12    10    12    1
    13    10    13    1
    14    11    14    2
    15    14    15    1
    16    11    16    1
    17    16    17    1
    18    15    17    2
    19    17    18    1
    20    18    19    1
    21    18    20    1
    22    18    21    1
    23     7    22    1
    24     9    23    1
    25    14    24    1
    26    15    25    1
    27    26    27    1
    28    27    28    2
    29    26    29    1
    30    29    30    2
    31    28    30    1
    32    29    31    1
    33    31    32    1
    34    31    33    1
    35    31    34    1
    36    32    35    1
    37    32    36    1
    38    36    37    1
    39    36    38    1
    40    36    39    1
    41    37    40    1
    42    40    41    1
    43    40    42    1
    44    40    43    1
    45    37    44    1
    46    37    45    1
    47    35    46    1
    48    35    47    1
    49    35    48    1
    50    46    49    1
    51    46    50    1
    52    46    51    1
    53    50    52    1
    54    50    53    1
    55    49    54    1
    56    44    55    1
    57    27    56    1
    58    28    57    1
    59    30    58    1
    60     1    50    1
    61    59    60    1
    62    60    61    2
    63    59    62    1
    64    62    63    2
    65    61    63    1
    66    62    64    1
    67    64    65    1
    68    64    66    1
    69    64    67    1
    70    65    68    1
    71    65    69    1
    72    69    70    1
    73    69    71    1
    74    69    72    1
    75    70    73    1
    76    73    74    1
    77    73    75    1
    78    73    76    1
    79    70    77    1
    80    70    78    1
    81    68    79    1
    82    68    80    1
    83    68    81    1
    84    79    82    1
    85    79    83    1
    86    79    84    1
    87    83    85    1
    88    83    86    1
    89    82    87    1
    90    77    88    1
    91    60    89    1
    92    61    90    1
    93    63    91    1
    94     1    83    1
    95    92    93    1
    96    93    94    2
    97    92    95    1
    98    95    96    2
    99    94    96    1
   100    95    97    1
   101    97    98    1
   102    97    99    1
   103    97   100    1
   104    98   101    1
   105    98   102    1
   106   102   103    1
   107   102   104    1
   108   102   105    1
   109   103   106    1
   110   106   107    1
   111   106   108    1
   112   106   109    1
   113   103   110    1
   114   103   111    1
   115   101   112    1
   116   101   113    1
   117   101   114    1
   118   112   115    1
   119   112   116    1
   120   112   117    1
   121   116   118    1
   122   116   119    1
   123   115   120    1
   124   110   121    1
   125    93   122    1
   126    94   123    1
   127    96   124    1
   128    19   116    1
   129   125   126    1
   130   126   127    2
   131   125   128    1
   132   128   129    2
   133   127   129    1
   134   128   130    1
   135   130   131    1
   136   130   132    1
   137   130   133    1
   138   131   134    1
   139   131   135    1
   140   135   136    1
   141   135   137    1
   142   135   138    1
   143   136   139    1
   144   139   140    1
   145   139   141    1
   146   139   142    1
   147   136   143    1
   148   136   144    1
   149   134   145    1
   150   134   146    1
   151   134   147    1
   152   145   148    1
   153   145   149    1
   154   145   150    1
   155   149   151    1
   156   149   152    1
   157   148   153    1
   158   143   154    1
   159   126   155    1
   160   127   156    1
   161   129   157    1
   162    19   149    1
