@<TRIPOS>MOLECULE
DFA+FDE+FDE+FDE+FDE
   157   162  1  0  0
SMALL
gas

@<TRIPOS>ATOM
      1 N1         94.4600   99.0400  100.2900 n3      1  DFA       -0.3248
      2 C          95.6800   99.8800  100.2900 c3      1  DFA        0.0403
      3 C1         96.9800   99.1700  100.6100 cc      1  DFA        0.0725
      4 H          95.5800  100.6700  101.0500 h1      1  DFA        0.0498
      5 H1         95.7900  100.3900   99.3200 h1      1  DFA        0.0498
      6 O          98.1300   99.9100  100.6900 os      1  DFA       -0.3174
      7 C2         97.0900   97.8800  101.0700 cd      1  DFA       -0.0319
      8 C3         99.0000   98.9900  101.2200 cc      1  DFA        0.0654
      9 C4         98.4500   97.7600  101.4700 cd      1  DFA       -0.0327
     10 C5        100.3300   99.4400  101.7700 c3      1  DFA        0.0418
     11 C6        101.5100   99.1600  100.8800 cc      1  DFA        0.0654
     12 H2        100.5000   98.9600  102.7400 hc      1  DFA        0.0409
     13 H3        100.2900  100.5100  101.9800 hc      1  DFA        0.0409
     14 C7        101.7600   97.9800  100.2300 cd      1  DFA       -0.0327
     15 C8        103.0800   98.1100   99.7300 cd      1  DFA       -0.0319
     16 O1        102.5500  100.0500  100.8500 os      1  DFA       -0.3174
     17 C9        103.4900   99.3500  100.1400 cc      1  DFA        0.0725
     18 C10       104.8800   99.9000   99.9900 c3      1  DFA        0.0403
     19 N2        105.8100   99.4800  101.0700 n3      1  DFA       -0.3248
     20 H4        104.8300  100.9900   99.9500 h1      1  DFA        0.0498
     21 H5        105.2700   99.5700   99.0200 h1      1  DFA        0.0498
     22 H10        96.3100   97.1400  101.1900 ha      1  DFA        0.0648
     23 H11        98.9100   96.9100  101.9600 ha      1  DFA        0.0648
     24 H12       101.1200   97.1000  100.1700 ha      1  DFA        0.0648
     25 H13       103.6700   97.3600   99.2100 ha      1  DFA        0.0648
     26 O          89.1500   95.8500   98.8000 os      2  FDE       -0.3212
     27 C          88.9300   95.5500   97.4800 cc      2  FDE        0.0455
     28 C3         89.8900   94.7400   96.9400 cd      2  FDE       -0.0364
     29 C4         90.3200   95.1900   99.0500 cc      2  FDE        0.0725
     30 C5         90.8200   94.4900   97.9800 cd      2  FDE       -0.0322
     31 C6         90.9300   95.2200  100.4300 c3      2  FDE        0.0457
     32 N          92.4100   95.0200  100.4200 n3      2  FDE       -0.2919
     33 H          90.4400   94.4300  101.0000 h1      2  FDE        0.0503
     34 H1         90.6800   96.1700  100.9200 h1      2  FDE        0.0503
     35 C7         92.8300   94.0100  101.4200 c3      2  FDE        0.0245
     36 C8         93.1900   96.2800  100.4600 c3      2  FDE        0.0245
     37 C9         93.2200   97.0800   99.1300 c3      2  FDE        0.0639
     38 H2         94.2300   96.0600  100.7000 h1      2  FDE        0.0458
     39 H3         92.8200   96.9300  101.2700 h1      2  FDE        0.0458
     40 C1         94.3700   98.1300   99.1100 c3      2  FDE       -0.0377
     41 H5         94.3000   98.7100   98.1800 hc      2  FDE        0.0257
     42 H6         95.3100   97.5700   99.0300 hc      2  FDE        0.0257
     43 O1         91.9700   97.7000   98.8300 oh      2  FDE       -0.3921
     44 H7         93.4400   96.3600   98.3300 h1      2  FDE        0.0611
     45 C10        94.2400   93.4200  101.1600 c3      2  FDE        0.0639
     46 H8         92.1300   93.1700  101.4200 h1      2  FDE        0.0458
     47 H9         92.8100   94.4500  102.4300 h1      2  FDE        0.0458
     48 O2         94.5300   92.4400  102.1600 oh      2  FDE       -0.3921
     49 C2         94.3600   92.7700   99.7700 c3      2  FDE       -0.0377
     50 H10        95.0000   94.2100  101.2400 h1      2  FDE        0.0611
     51 H11        93.5900   91.9900   99.6300 hc      2  FDE        0.0257
     52 H12        95.3400   92.3000   99.6400 hc      2  FDE        0.0257
     53 H13        94.2300   93.5100   98.9800 hc      2  FDE        0.0257
     54 H14        93.8900   91.7200  102.0600 ho      2  FDE        0.2105
     55 H15        91.9400   97.8500   97.8700 ho      2  FDE        0.2105
     56 H16        88.0400   95.9700   97.0400 h4      2  FDE        0.0902
     57 H17        89.9300   94.3600   95.9200 ha      2  FDE        0.0645
     58 H18        91.7100   93.8900   97.9300 ha      2  FDE        0.0648
     59 O          91.7000  103.0800   96.2500 os      3  FDE       -0.3212
     60 C          90.4100  102.7000   95.9800 cc      3  FDE        0.0455
     61 C3         89.5900  102.7200   97.0800 cd      3  FDE       -0.0364
     62 C4         91.6500  103.3300   97.5900 cc      3  FDE        0.0725
     63 C5         90.4100  103.1400   98.1600 cd      3  FDE       -0.0322
     64 C6         92.8700  103.8200   98.3200 c3      3  FDE        0.0457
     65 N          92.8400  103.5700   99.7800 n3      3  FDE       -0.2919
     66 H          92.9300  104.9000   98.1200 h1      3  FDE        0.0503
     67 H1         93.7600  103.3800   97.8700 h1      3  FDE        0.0503
     68 C7         93.2700  104.7500  100.5700 c3      3  FDE        0.0245
     69 C8         93.5300  102.3100  100.1900 c3      3  FDE        0.0245
     70 C9         92.7800  101.0000   99.8300 c3      3  FDE        0.0639
     71 H2         93.6600  102.3000  101.2800 h1      3  FDE        0.0458
     72 H3         94.5400  102.2900   99.7600 h1      3  FDE        0.0458
     73 C1         93.2300   99.7900  100.7000 c3      3  FDE       -0.0377
     74 H5         92.3900   99.0900  100.7800 hc      3  FDE        0.0257
     75 H6         93.3900  100.1500  101.7200 hc      3  FDE        0.0257
     76 O1         92.8900  100.7100   98.4400 oh      3  FDE       -0.3921
     77 H7         91.7200  101.1700  100.0700 h1      3  FDE        0.0611
     78 C10        92.8000  104.7300  102.0500 c3      3  FDE        0.0639
     79 H8         92.8400  105.6600  100.1100 h1      3  FDE        0.0458
     80 H9         94.3600  104.8500  100.5300 h1      3  FDE        0.0458
     81 O2         93.2500  105.9200  102.6900 oh      3  FDE       -0.3921
     82 C2         91.2600  104.6400  102.1700 c3      3  FDE       -0.0377
     83 H10        93.2400  103.8700  102.5600 h1      3  FDE        0.0611
     84 H11        90.7700  105.4600  101.6400 hc      3  FDE        0.0257
     85 H12        90.9600  104.6900  103.2300 hc      3  FDE        0.0257
     86 H13        90.8900  103.6900  101.7600 hc      3  FDE        0.0257
     87 H14        92.8200  106.6800  102.2600 ho      3  FDE        0.2105
     88 H15        92.3500   99.9100   98.2800 ho      3  FDE        0.2105
     89 H16        90.1900  102.4400   94.9600 h4      3  FDE        0.0902
     90 H17        88.5400  102.4700   97.1300 ha      3  FDE        0.0645
     91 H18        90.1200  103.2900   99.1900 ha      3  FDE        0.0648
     92 O         111.9900  102.1600   97.6400 os      4  FDE       -0.3212
     93 C         111.3700  102.7300   96.5600 cc      4  FDE        0.0455
     94 C3        110.0200  102.5200   96.5300 cd      4  FDE       -0.0364
     95 C4        110.9400  101.5500   98.2800 cc      4  FDE        0.0725
     96 C5        109.7200  101.7400   97.6700 cd      4  FDE       -0.0322
     97 C6        111.1500  100.8300   99.5900 c3      4  FDE        0.0457
     98 N         110.1400   99.7700   99.8400 n3      4  FDE       -0.2919
     99 H         111.1000  101.6000  100.3700 h1      4  FDE        0.0503
    100 H1        112.1600  100.4100   99.6300 h1      4  FDE        0.0503
    101 C7        109.7300   99.7200  101.2600 c3      4  FDE        0.0245
    102 C8        110.4700   98.4300   99.2900 c3      4  FDE        0.0245
    103 C9        110.8700   98.3700   97.7900 c3      4  FDE        0.0639
    104 H2        109.6000   97.7700   99.4200 h1      4  FDE        0.0458
    105 H3        111.2900   97.9900   99.8800 h1      4  FDE        0.0458
    106 C1        110.6700   96.9500   97.2200 c3      4  FDE       -0.0377
    107 H4        111.2800   96.2200   97.7700 hc      4  FDE        0.0257
    108 H5        110.9600   96.9200   96.1600 hc      4  FDE        0.0257
    109 H6        109.6200   96.6500   97.2900 hc      4  FDE        0.0257
    110 O1        112.2500   98.7200   97.6300 oh      4  FDE       -0.3921
    111 H7        110.2300   99.0600   97.2300 h1      4  FDE        0.0611
    112 C10       108.3500   99.0700  101.5100 c3      4  FDE        0.0639
    113 H8        109.6900  100.7300  101.6700 h1      4  FDE        0.0458
    114 H9        110.4900   99.1800  101.8400 h1      4  FDE        0.0458
    115 O2        108.1800   99.0000  102.9300 oh      4  FDE       -0.3921
    116 C2        107.2200   99.8800  100.7900 c3      4  FDE       -0.0377
    117 H10       108.3400   98.0500  101.1200 h1      4  FDE        0.0611
    118 H11       107.3500  100.9500  101.0100 hc      4  FDE        0.0257
    119 H13       107.4100   99.7700   99.7200 hc      4  FDE        0.0257
    120 H14       108.0200   99.9000  103.2600 ho      4  FDE        0.2105
    121 H15       112.4000   98.8900   96.6800 ho      4  FDE        0.2105
    122 H16       112.0100  103.2800   95.8900 h4      4  FDE        0.0902
    123 H17       109.3100  102.8800   95.7800 ha      4  FDE        0.0645
    124 H18       108.7500  101.3800   98.0000 ha      4  FDE        0.0648
    125 O         101.7600  103.2900  101.0400 os      5  FDE       -0.3212
    126 C         100.9300  102.7300  100.0900 cc      5  FDE        0.0455
    127 C3        101.5600  102.4500   98.9100 cd      5  FDE       -0.0364
    128 C4        102.9500  103.3200  100.3700 cc      5  FDE        0.0725
    129 C5        102.9000  102.8500   99.0800 cd      5  FDE       -0.0322
    130 C6        104.1700  103.9600  100.9700 c3      5  FDE        0.0457
    131 N         105.2000  102.9900  101.4300 n3      5  FDE       -0.2919
    132 H         103.8600  104.6000  101.8100 h1      5  FDE        0.0503
    133 H1        104.5800  104.6300  100.2100 h1      5  FDE        0.0503
    134 C7        104.7200  102.2500  102.6300 c3      5  FDE        0.0245
    135 C8        106.5300  103.6400  101.5900 c3      5  FDE        0.0245
    136 C9        107.2900  103.8000  100.2400 c3      5  FDE        0.0639
    137 H2        107.1700  103.0400  102.2300 h1      5  FDE        0.0458
    138 H3        106.4300  104.6100  102.0800 h1      5  FDE        0.0458
    139 C1        108.8100  103.8900  100.4600 c3      5  FDE       -0.0377
    140 H4        109.0600  104.7400  101.1100 hc      5  FDE        0.0257
    141 H5        109.3400  104.0100   99.5000 hc      5  FDE        0.0257
    142 H6        109.1800  102.9700  100.9300 hc      5  FDE        0.0257
    143 O1        106.8700  104.9800   99.5500 oh      5  FDE       -0.3921
    144 H7        107.0800  102.9200   99.6200 h1      5  FDE        0.0611
    145 C10       105.6000  101.0600  103.1300 c3      5  FDE        0.0639
    146 H8        103.7100  101.8600  102.4400 h1      5  FDE        0.0458
    147 H9        104.6200  102.9700  103.4600 h1      5  FDE        0.0458
    148 O2        105.3800  100.9100  104.5300 oh      5  FDE       -0.3921
    149 C2        105.3100   99.6800  102.4600 c3      5  FDE       -0.0377
    150 H10       106.6600  101.2900  103.0100 h1      5  FDE        0.0611
    151 H11       104.2400   99.4800  102.5300 hc      5  FDE        0.0257
    152 H12       105.7700   98.9100  103.0900 hc      5  FDE        0.0257
    153 H14       104.4400  100.6900  104.6500 ho      5  FDE        0.2105
    154 H15       107.3400  105.0000   98.6900 ho      5  FDE        0.2105
    155 H16        99.9000  102.5800  100.3900 h4      5  FDE        0.0902
    156 H17       101.1200  102.0100   98.0200 ha      5  FDE        0.0645
    157 H18       103.7100  102.8000   98.3600 ha      5  FDE        0.0648
@<TRIPOS>BOND
     1     1     2    1
     2     2     3    1
     3     2     4    1
     4     2     5    1
     5     3     6    1
     6     3     7    2
     7     6     8    1
     8     8     9    2
     9     7     9    1
    10     8    10    1
    11    10    11    1
    12    10    12    1
    13    10    13    1
    14    11    14    2
    15    14    15    1
    16    11    16    1
    17    16    17    1
    18    15    17    2
    19    17    18    1
    20    18    19    1
    21    18    20    1
    22    18    21    1
    23     7    22    1
    24     9    23    1
    25    14    24    1
    26    15    25    1
    27    26    27    1
    28    27    28    2
    29    26    29    1
    30    29    30    2
    31    28    30    1
    32    29    31    1
    33    31    32    1
    34    31    33    1
    35    31    34    1
    36    32    35    1
    37    32    36    1
    38    36    37    1
    39    36    38    1
    40    36    39    1
    41    37    40    1
    42    40    41    1
    43    40    42    1
    44    37    43    1
    45    37    44    1
    46    35    45    1
    47    35    46    1
    48    35    47    1
    49    45    48    1
    50    45    49    1
    51    45    50    1
    52    49    51    1
    53    49    52    1
    54    49    53    1
    55    48    54    1
    56    43    55    1
    57    27    56    1
    58    28    57    1
    59    30    58    1
    60     1    40    1
    61    59    60    1
    62    60    61    2
    63    59    62    1
    64    62    63    2
    65    61    63    1
    66    62    64    1
    67    64    65    1
    68    64    66    1
    69    64    67    1
    70    65    68    1
    71    65    69    1
    72    69    70    1
    73    69    71    1
    74    69    72    1
    75    70    73    1
    76    73    74    1
    77    73    75    1
    78    70    76    1
    79    70    77    1
    80    68    78    1
    81    68    79    1
    82    68    80    1
    83    78    81    1
    84    78    82    1
    85    78    83    1
    86    82    84    1
    87    82    85    1
    88    82    86    1
    89    81    87    1
    90    76    88    1
    91    60    89    1
    92    61    90    1
    93    63    91    1
    94     1    73    1
    95    92    93    1
    96    93    94    2
    97    92    95    1
    98    95    96    2
    99    94    96    1
   100    95    97    1
   101    97    98    1
   102    97    99    1
   103    97   100    1
   104    98   101    1
   105    98   102    1
   106   102   103    1
   107   102   104    1
   108   102   105    1
   109   103   106    1
   110   106   107    1
   111   106   108    1
   112   106   109    1
   113   103   110    1
   114   103   111    1
   115   101   112    1
   116   101   113    1
   117   101   114    1
   118   112   115    1
   119   112   116    1
   120   112   117    1
   121   116   118    1
   122   116   119    1
   123   115   120    1
   124   110   121    1
   125    93   122    1
   126    94   123    1
   127    96   124    1
   128    19   116    1
   129   125   126    1
   130   126   127    2
   131   125   128    1
   132   128   129    2
   133   127   129    1
   134   128   130    1
   135   130   131    1
   136   130   132    1
   137   130   133    1
   138   131   134    1
   139   131   135    1
   140   135   136    1
   141   135   137    1
   142   135   138    1
   143   136   139    1
   144   139   140    1
   145   139   141    1
   146   139   142    1
   147   136   143    1
   148   136   144    1
   149   134   145    1
   150   134   146    1
   151   134   147    1
   152   145   148    1
   153   145   149    1
   154   145   150    1
   155   149   151    1
   156   149   152    1
   157   148   153    1
   158   143   154    1
   159   126   155    1
   160   127   156    1
   161   129   157    1
   162    19   149    1
