@<TRIPOS>MOLECULE
DFA+FDE+FDE
    93    96  3  0  0
SMALL
gas

@<TRIPOS>ATOM
      1 N1         99.7800   99.9300  100.4900 n3      1  DFA       -0.3248
      2 C         100.9800  100.7900  100.4400 c3      1  DFA        0.0403
      3 C1        102.2900  100.0500  100.3600 cc      1  DFA        0.0725
      4 H         101.0200  101.4200  101.3400 h1      1  DFA        0.0498
      5 H1        100.9200  101.4600   99.5800 h1      1  DFA        0.0498
      6 O         103.2400  100.4300   99.4600 os      1  DFA       -0.3174
      7 C2        102.6400   99.0000  101.1700 cd      1  DFA       -0.0319
      8 C3        104.2500   99.5500   99.7500 cc      1  DFA        0.0654
      9 C4        103.9600   98.6600  100.7500 cd      1  DFA       -0.0327
     10 C5        105.5300   99.5700   98.9600 c3      1  DFA        0.0418
     11 C6        106.7700   99.6900   99.8100 cc      1  DFA        0.0654
     12 H2        105.5000  100.4000   98.2400 hc      1  DFA        0.0409
     13 H3        105.5900   98.6600   98.3500 hc      1  DFA        0.0409
     14 C7        107.3500   98.6500  100.4900 cd      1  DFA       -0.0327
     15 C8        108.5200   99.2100  101.0700 cd      1  DFA       -0.0319
     16 O1        107.4500  100.8800   99.8800 os      1  DFA       -0.3174
     17 C9        108.5200  100.5200  100.6600 cc      1  DFA        0.0725
     18 C10       109.5900  101.5100  101.0100 c3      1  DFA        0.0403
     19 N2        110.9300  101.0100  100.7100 n3      1  DFA       -0.3248
     20 H4        109.5200  101.7600  102.0800 h1      1  DFA        0.0498
     21 H5        109.4100  102.4400  100.4500 h1      1  DFA        0.0498
     22 H8        111.1200  100.1700  101.2700 hn      1  DFA        0.1188
     23 H9        111.6300  101.7000  100.9800 hn      1  DFA        0.1188
     24 H10       102.0600   98.5300  101.9600 ha      1  DFA        0.0648
     25 H11       104.5800   97.8700  101.1500 ha      1  DFA        0.0648
     26 H12       107.0100   97.6300  100.5500 ha      1  DFA        0.0648
     27 H13       109.2500   98.7000  101.6800 ha      1  DFA        0.0648
     28 O          94.4200   96.7600   98.9200 os      2  FDE       -0.3212
     29 C          94.2000   96.4800   97.5900 cc      2  FDE        0.0455
     30 C3         95.1800   95.6900   97.0300 cd      2  FDE       -0.0364
     31 C4         95.6000   96.1100   99.1500 cc      2  FDE        0.0725
     32 C5         96.1100   95.4400   98.0700 cd      2  FDE       -0.0322
     33 C6         96.2100   96.1200  100.5300 c3      2  FDE        0.0457
     34 N          97.6800   95.9100  100.5300 n3      2  FDE       -0.2919
     35 H          95.7100   95.3300  101.1100 h1      2  FDE        0.0503
     36 H1         95.9700   97.0700  101.0300 h1      2  FDE        0.0503
     37 C7         98.1000   94.8500  101.4800 c3      2  FDE        0.0245
     38 C8         98.4800   97.1600  100.6000 c3      2  FDE        0.0245
     39 C9         98.4900   98.0000   99.3000 c3      2  FDE        0.0639
     40 H2         99.5300   96.9100  100.8100 h1      2  FDE        0.0458
     41 H3         98.1400   97.7700  101.4500 h1      2  FDE        0.0458
     42 C1         99.6500   99.0400   99.2900 c3      2  FDE       -0.0377
     43 H5         99.5800   99.6400   98.3800 hc      2  FDE        0.0257
     44 H6        100.5800   98.4600   99.2000 hc      2  FDE        0.0257
     45 O1         97.2400   98.6500   99.0600 oh      2  FDE       -0.3921
     46 H7         98.6800   97.3100   98.4700 h1      2  FDE        0.0611
     47 C10        99.5000   94.2500  101.1900 c3      2  FDE        0.0639
     48 H8         97.3800   94.0200  101.4500 h1      2  FDE        0.0458
     49 H9         98.0800   95.2500  102.5100 h1      2  FDE        0.0458
     50 O2         99.7700   93.2200  102.1400 oh      2  FDE       -0.3921
     51 C2         99.5900   93.6500   99.7700 c3      2  FDE       -0.0377
     52 H10       100.2600   95.0300  101.2900 h1      2  FDE        0.0611
     53 H11        98.8100   92.9000   99.6000 hc      2  FDE        0.0257
     54 H12       100.5700   93.1800   99.6200 hc      2  FDE        0.0257
     55 H13        99.4800   94.4400   99.0100 hc      2  FDE        0.0257
     56 H14        99.1200   92.5100  102.0100 ho      2  FDE        0.2105
     57 H15        97.1600   98.8000   98.1000 ho      2  FDE        0.2105
     58 H16        93.3100   96.8900   97.1500 h4      2  FDE        0.0902
     59 H17        95.2300   95.3300   96.0100 ha      2  FDE        0.0645
     60 H18        97.0100   94.8500   98.0100 ha      2  FDE        0.0648
     61 O          97.1200  104.0400   96.3900 os      3  FDE       -0.3212
     62 C          95.8400  103.6600   96.0700 cc      3  FDE        0.0455
     63 C3         94.9900  103.6200   97.1500 cd      3  FDE       -0.0364
     64 C4         97.0200  104.2100   97.7500 cc      3  FDE        0.0725
     65 C5         95.7700  103.9900   98.2700 cd      3  FDE       -0.0322
     66 C6         98.2300  104.6500   98.5400 c3      3  FDE        0.0457
     67 N          98.1000  104.4500  100.0100 n3      3  FDE       -0.2919
     68 H          98.3800  105.7100   98.3100 h1      3  FDE        0.0503
     69 H1         99.1100  104.1300   98.1600 h1      3  FDE        0.0503
     70 C7         98.4800  105.6600  100.7600 c3      3  FDE        0.0245
     71 C8         98.7500  103.2000  100.5100 c3      3  FDE        0.0245
     72 C9         98.0500  101.8700  100.1200 c3      3  FDE        0.0639
     73 H2         98.7800  103.2300  101.6000 h1      3  FDE        0.0458
     74 H3         99.7900  103.1900  100.1700 h1      3  FDE        0.0458
     75 C1         98.5600  100.6600  100.9600 c3      3  FDE       -0.0377
     76 H5         97.7300   99.9600  101.0800 hc      3  FDE        0.0257
     77 H6         98.7600  101.0200  101.9800 hc      3  FDE        0.0257
     78 O1         98.1600  101.6100   98.7200 oh      3  FDE       -0.3921
     79 H7         96.9900  102.0000  100.3700 h1      3  FDE        0.0611
     80 C10        97.9400  105.7000  102.2200 c3      3  FDE        0.0639
     81 H8         98.0700  106.5500  100.2500 h1      3  FDE        0.0458
     82 H9         99.5700  105.7700  100.7800 h1      3  FDE        0.0458
     83 O2         98.3600  106.9200  102.8400 oh      3  FDE       -0.3921
     84 C2         96.4000  105.6100  102.2800 c3      3  FDE       -0.0377
     85 H10        98.3600  104.8700  102.7900 h1      3  FDE        0.0611
     86 H11        95.9400  106.4100  101.6900 hc      3  FDE        0.0257
     87 H12        96.0500  105.7100  103.3200 hc      3  FDE        0.0257
     88 H13        96.0500  104.6500  101.9000 hc      3  FDE        0.0257
     89 H14        97.9600  107.6500  102.3400 ho      3  FDE        0.2105
     90 H15        97.6900  100.7700   98.5600 ho      3  FDE        0.2105
     91 H16        95.6500  103.4500   95.0300 h4      3  FDE        0.0902
     92 H17        93.9300  103.3500   97.1400 ha      3  FDE        0.0645
     93 H18        95.4500  104.0700   99.3000 ha      3  FDE        0.0648
@<TRIPOS>BOND
     1     1     2    1
     2     2     3    1
     3     2     4    1
     4     2     5    1
     5     3     6    1
     6     3     7    2
     7     6     8    1
     8     8     9    2
     9     7     9    1
    10     8    10    1
    11    10    11    1
    12    10    12    1
    13    10    13    1
    14    11    14    2
    15    14    15    1
    16    11    16    1
    17    16    17    1
    18    15    17    2
    19    17    18    1
    20    18    19    1
    21    18    20    1
    22    18    21    1
    23    19    22    1
    24    19    23    1
    25     7    24    1
    26     9    25    1
    27    14    26    1
    28    15    27    1
    29    28    29    1
    30    29    30    2
    31    28    31    1
    32    31    32    2
    33    30    32    1
    34    31    33    1
    35    33    34    1
    36    33    35    1
    37    33    36    1
    38    34    37    1
    39    34    38    1
    40    38    39    1
    41    38    40    1
    42    38    41    1
    43    39    42    1
    44    42    43    1
    45    42    44    1
    46    39    45    1
    47    39    46    1
    48    37    47    1
    49    37    48    1
    50    37    49    1
    51    47    50    1
    52    47    51    1
    53    47    52    1
    54    51    53    1
    55    51    54    1
    56    51    55    1
    57    50    56    1
    58    45    57    1
    59    29    58    1
    60    30    59    1
    61    32    60    1
    62     1    42    1
    63    61    62    1
    64    62    63    2
    65    61    64    1
    66    64    65    2
    67    63    65    1
    68    64    66    1
    69    66    67    1
    70    66    68    1
    71    66    69    1
    72    67    70    1
    73    67    71    1
    74    71    72    1
    75    71    73    1
    76    71    74    1
    77    72    75    1
    78    75    76    1
    79    75    77    1
    80    72    78    1
    81    72    79    1
    82    70    80    1
    83    70    81    1
    84    70    82    1
    85    80    83    1
    86    80    84    1
    87    80    85    1
    88    84    86    1
    89    84    87    1
    90    84    88    1
    91    83    89    1
    92    78    90    1
    93    62    91    1
    94    63    92    1
    95    65    93    1
    96     1    75    1
@<TRIPOS>SUBSTRUCTURE
     1 DFA          1 RESIDUE
     2 FDE          1 RESIDUE
     3 FDE          1 RESIDUE