@<TRIPOS>MOLECULE
DFA+FDE+FDE+FDE
   125   129  1  0  0
SMALL
gas

@<TRIPOS>ATOM
      1 N1         96.5400   99.2300  101.2800 n3      1  DFA       -0.3248
      2 C          97.7400  100.1000  101.2700 c3      1  DFA        0.0403
      3 C1         99.0500   99.3400  101.2600 cc      1  DFA        0.0725
      4 H          97.7400  100.7400  102.1600 h1      1  DFA        0.0498
      5 H1         97.7100  100.7500  100.3900 h1      1  DFA        0.0498
      6 O          99.9500   99.5400  100.2400 os      1  DFA       -0.3174
      7 C2         99.4600   98.4700  102.2300 cd      1  DFA       -0.0319
      8 C3        100.9800   98.7400  100.6500 cc      1  DFA        0.0654
      9 C4        100.7500   98.0600  101.8200 cd      1  DFA       -0.0327
     10 C5        102.2100   98.6000   99.8000 c3      1  DFA        0.0418
     11 C6        103.5000   98.6500  100.5800 cc      1  DFA        0.0654
     12 H2        102.2200   99.4100   99.0500 hc      1  DFA        0.0409
     13 H3        102.1600   97.6700   99.2300 hc      1  DFA        0.0409
     14 C7        104.0800   97.5600  101.1800 cd      1  DFA       -0.0327
     15 C8        105.3100   98.0500  101.7000 cd      1  DFA       -0.0319
     16 O1        104.2400   99.8100  100.6400 os      1  DFA       -0.3174
     17 C9        105.3400   99.3800  101.3400 cc      1  DFA        0.0725
     18 C10       106.4800  100.3200  101.5900 c3      1  DFA        0.0403
     19 N2        107.7800   99.7200  101.2000 n3      1  DFA       -0.3248
     20 H4        106.5100  100.5900  102.6500 h1      1  DFA        0.0498
     21 H5        106.2900  101.2300  101.0200 h1      1  DFA        0.0498
     22 H8        107.9800   98.9400  101.8200 hn      1  DFA        0.1188
     23 H10        98.9200   98.1700  103.1200 ha      1  DFA        0.0648
     24 H11       101.4100   97.3600  102.3300 ha      1  DFA        0.0648
     25 H12       103.7100   96.5500  101.2200 ha      1  DFA        0.0648
     26 H13       106.0700   97.4900  102.2200 ha      1  DFA        0.0648
     27 O          91.2700   96.0100   99.6200 os      2  FDE       -0.3212
     28 C          91.1000   95.7500   98.2900 cc      2  FDE        0.0455
     29 C3         92.0900   94.9700   97.7400 cd      2  FDE       -0.0364
     30 C4         92.4500   95.3600   99.8800 cc      2  FDE        0.0725
     31 C5         92.9900   94.7000   98.8000 cd      2  FDE       -0.0322
     32 C6         93.0300   95.3600  101.2700 c3      2  FDE        0.0457
     33 N          94.5000   95.1700  101.3000 n3      2  FDE       -0.2919
     34 H          92.5300   94.5500  101.8200 h1      2  FDE        0.0503
     35 H1         92.7500   96.2900  101.7800 h1      2  FDE        0.0503
     36 C7         94.9200   94.1300  102.2700 c3      2  FDE        0.0245
     37 C8         95.2800   96.4400  101.3900 c3      2  FDE        0.0245
     38 C9         95.3200   97.2700  100.0800 c3      2  FDE        0.0639
     39 H2         96.3200   96.2200  101.6500 h1      2  FDE        0.0458
     40 H3         94.8900   97.0600  102.2100 h1      2  FDE        0.0458
     41 C1         96.4700   98.3200  100.1000 c3      2  FDE       -0.0377
     42 H5         96.4300   98.9000   99.1700 hc      2  FDE        0.0257
     43 H6         97.4100   97.7500  100.0400 hc      2  FDE        0.0257
     44 O1         94.0700   97.9000   99.7900 oh      2  FDE       -0.3921
     45 H7         95.5500   96.5700   99.2700 h1      2  FDE        0.0611
     46 C10        96.3400   93.5600  102.0100 c3      2  FDE        0.0639
     47 H8         94.2200   93.2900  102.2300 h1      2  FDE        0.0458
     48 H9         94.8800   94.5400  103.2900 h1      2  FDE        0.0458
     49 O2         96.6100   92.5500  102.9800 oh      2  FDE       -0.3921
     50 C2         96.4800   92.9600  100.6000 c3      2  FDE       -0.0377
     51 H10        97.0800   94.3600  102.1300 h1      2  FDE        0.0611
     52 H11        95.7200   92.1900  100.4200 hc      2  FDE        0.0257
     53 H12        97.4700   92.5000  100.4700 hc      2  FDE        0.0257
     54 H13        96.3700   93.7400   99.8300 hc      2  FDE        0.0257
     55 H14        95.9800   91.8200  102.8300 ho      2  FDE        0.2105
     56 H15        94.0400   98.0600   98.8300 ho      2  FDE        0.2105
     57 H16        90.2100   96.1700   97.8300 h4      2  FDE        0.0902
     58 H17        92.1600   94.6200   96.7200 ha      2  FDE        0.0645
     59 H18        93.8900   94.1100   98.7600 ha      2  FDE        0.0648
     60 O          93.8300  103.2300   97.1600 os      3  FDE       -0.3212
     61 C          92.5600  102.8100   96.8500 cc      3  FDE        0.0455
     62 C3         91.7100  102.7900   97.9300 cd      3  FDE       -0.0364
     63 C4         93.7300  103.4400   98.5100 cc      3  FDE        0.0725
     64 C5         92.4800  103.2100   99.0300 cd      3  FDE       -0.0322
     65 C6         94.9200  103.9400   99.2800 c3      3  FDE        0.0457
     66 N          94.8300  103.7300  100.7500 n3      3  FDE       -0.2919
     67 H          95.0100  105.0100   99.0600 h1      3  FDE        0.0503
     68 H1         95.8300  103.4700   98.8900 h1      3  FDE        0.0503
     69 C7         95.2100  104.9400  101.5100 c3      3  FDE        0.0245
     70 C8         95.5000  102.4900  101.2300 c3      3  FDE        0.0245
     71 C9         94.8200  101.1500  100.8300 c3      3  FDE        0.0639
     72 H2         95.5400  102.5000  102.3200 h1      3  FDE        0.0458
     73 H3         96.5400  102.4900  100.8900 h1      3  FDE        0.0458
     74 C1         95.3000   99.9500  101.7000 c3      3  FDE       -0.0377
     75 H5         94.4700   99.2400  101.7900 hc      3  FDE        0.0257
     76 H6         95.4600  100.3200  102.7200 hc      3  FDE        0.0257
     77 O1         94.9800  100.8800   99.4400 oh      3  FDE       -0.3921
     78 H7         93.7500  101.2800  101.0400 h1      3  FDE        0.0611
     79 C10        94.7000  104.9700  102.9700 c3      3  FDE        0.0639
     80 H8         94.7900  105.8300  101.0100 h1      3  FDE        0.0458
     81 H9         96.3000  105.0500  101.5000 h1      3  FDE        0.0458
     82 O2         95.1200  106.1900  103.5900 oh      3  FDE       -0.3921
     83 C2         93.1600  104.8600  103.0600 c3      3  FDE       -0.0377
     84 H10        95.1400  104.1300  103.5300 h1      3  FDE        0.0611
     85 H11        92.6800  105.6600  102.4800 hc      3  FDE        0.0257
     86 H12        92.8300  104.9500  104.1000 hc      3  FDE        0.0257
     87 H13        92.8100  103.9000  102.6700 hc      3  FDE        0.0257
     88 H14        94.7000  106.9200  103.1000 ho      3  FDE        0.2105
     89 H15        94.5200  100.0400   99.2700 ho      3  FDE        0.2105
     90 H16        92.3800  102.5600   95.8100 h4      3  FDE        0.0902
     91 H17        90.6600  102.5100   97.9300 ha      3  FDE        0.0645
     92 H18        92.1600  103.3300  100.0600 ha      3  FDE        0.0648
     93 O         107.9100  105.4600   98.1500 os      4  FDE       -0.3212
     94 C         108.9200  106.3500   98.4500 cc      4  FDE        0.0455
     95 C3        110.1800  105.8300   98.3000 cd      4  FDE       -0.0364
     96 C4        108.6300  104.3400   97.8100 cc      4  FDE        0.0725
     97 C5        109.9900  104.4900   97.8700 cd      4  FDE       -0.0322
     98 C6        107.9100  103.1000   97.3400 c3      4  FDE        0.0457
     99 N         108.7300  101.8700   97.4500 n3      4  FDE       -0.2919
    100 H         107.6200  103.2800   96.3000 h1      4  FDE        0.0503
    101 H1        106.9700  102.9900   97.9100 h1      4  FDE        0.0503
    102 C7        108.7200  101.0800   96.1900 c3      4  FDE        0.0245
    103 C8        108.4500  101.0600   98.6700 c3      4  FDE        0.0245
    104 C9        108.9000  101.6900  100.0100 c3      4  FDE        0.0639
    105 H2        108.9700  100.1000   98.6000 h1      4  FDE        0.0458
    106 H3        107.3800  100.8200   98.7200 h1      4  FDE        0.0458
    107 C1        108.9400  100.6400  101.1500 c3      4  FDE       -0.0377
    108 H5        109.0600  101.1400  102.1200 hc      4  FDE        0.0257
    109 H6        109.8400  100.0300  101.0000 hc      4  FDE        0.0257
    110 O1        108.0600  102.7900  100.4000 oh      4  FDE       -0.3921
    111 H7        109.9200  102.0700   99.8800 h1      4  FDE        0.0611
    112 C10       109.8800  100.0600   96.0700 c3      4  FDE        0.0639
    113 H8        108.8100  101.7700   95.3400 h1      4  FDE        0.0458
    114 H9        107.7700  100.5500   96.0900 h1      4  FDE        0.0458
    115 O2        109.8000   99.4000   94.8200 oh      4  FDE       -0.3921
    116 C2        111.2700  100.7300   96.2000 c3      4  FDE       -0.0377
    117 H10       109.7900   99.3100   96.8700 h1      4  FDE        0.0611
    118 H11       111.3900  101.5300   95.4500 hc      4  FDE        0.0257
    119 H12       112.0700  100.0000   96.0400 hc      4  FDE        0.0257
    120 H13       111.4100  101.1700   97.1900 hc      4  FDE        0.0257
    121 H14       109.9100  100.0700   94.1200 ho      4  FDE        0.2105
    122 H15       108.5000  103.2600  101.1300 ho      4  FDE        0.2105
    123 H16       108.6000  107.3400   98.7600 h4      4  FDE        0.0902
    124 H17       111.1200  106.3300   98.4700 ha      4  FDE        0.0645
    125 H18       110.7500  103.7600   97.6300 ha      4  FDE        0.0648
@<TRIPOS>BOND
     1     1     2    1
     2     2     3    1
     3     2     4    1
     4     2     5    1
     5     3     6    1
     6     3     7    2
     7     6     8    1
     8     8     9    2
     9     7     9    1
    10     8    10    1
    11    10    11    1
    12    10    12    1
    13    10    13    1
    14    11    14    2
    15    14    15    1
    16    11    16    1
    17    16    17    1
    18    15    17    2
    19    17    18    1
    20    18    19    1
    21    18    20    1
    22    18    21    1
    23    19    22    1
    24     7    23    1
    25     9    24    1
    26    14    25    1
    27    15    26    1
    28    27    28    1
    29    28    29    2
    30    27    30    1
    31    30    31    2
    32    29    31    1
    33    30    32    1
    34    32    33    1
    35    32    34    1
    36    32    35    1
    37    33    36    1
    38    33    37    1
    39    37    38    1
    40    37    39    1
    41    37    40    1
    42    38    41    1
    43    41    42    1
    44    41    43    1
    45    38    44    1
    46    38    45    1
    47    36    46    1
    48    36    47    1
    49    36    48    1
    50    46    49    1
    51    46    50    1
    52    46    51    1
    53    50    52    1
    54    50    53    1
    55    50    54    1
    56    49    55    1
    57    44    56    1
    58    28    57    1
    59    29    58    1
    60    31    59    1
    61     1    41    1
    62    60    61    1
    63    61    62    2
    64    60    63    1
    65    63    64    2
    66    62    64    1
    67    63    65    1
    68    65    66    1
    69    65    67    1
    70    65    68    1
    71    66    69    1
    72    66    70    1
    73    70    71    1
    74    70    72    1
    75    70    73    1
    76    71    74    1
    77    74    75    1
    78    74    76    1
    79    71    77    1
    80    71    78    1
    81    69    79    1
    82    69    80    1
    83    69    81    1
    84    79    82    1
    85    79    83    1
    86    79    84    1
    87    83    85    1
    88    83    86    1
    89    83    87    1
    90    82    88    1
    91    77    89    1
    92    61    90    1
    93    62    91    1
    94    64    92    1
    95     1    74    1
    96    93    94    1
    97    94    95    2
    98    93    96    1
    99    96    97    2
   100    95    97    1
   101    96    98    1
   102    98    99    1
   103    98   100    1
   104    98   101    1
   105    99   102    1
   106    99   103    1
   107   103   104    1
   108   103   105    1
   109   103   106    1
   110   104   107    1
   111   107   108    1
   112   107   109    1
   113   104   110    1
   114   104   111    1
   115   102   112    1
   116   102   113    1
   117   102   114    1
   118   112   115    1
   119   112   116    1
   120   112   117    1
   121   116   118    1
   122   116   119    1
   123   116   120    1
   124   115   121    1
   125   110   122    1
   126    94   123    1
   127    95   124    1
   128    97   125    1
   129    19   107    1
