@<TRIPOS>MOLECULE
DFA+FDE+FDE+FDE
   125   129  1  0  0
SMALL
gas

@<TRIPOS>ATOM
      1 N1         92.9400   98.5400   99.5200 n3      1  DFA       -0.3248
      2 C          93.8600   99.2100  100.4600 c3      1  DFA        0.0403
      3 C1         95.3100   99.0700  100.0700 cc      1  DFA        0.0725
      4 H          93.7200   98.8000  101.4700 h1      1  DFA        0.0498
      5 H1         93.6300  100.2800  100.5000 h1      1  DFA        0.0498
      6 O          96.2400   99.9000  100.6400 os      1  DFA       -0.3174
      7 C2         95.8100   98.2200   99.1100 cd      1  DFA       -0.0319
      8 C3         97.3700   99.5400   99.9600 cc      1  DFA        0.0654
      9 C4         97.1900   98.5500   99.0300 cd      1  DFA       -0.0327
     10 C5         98.6300  100.3400  100.1500 c3      1  DFA        0.0418
     11 C6         99.9400   99.6200   99.9200 cc      1  DFA        0.0654
     12 H2         98.6400  100.7500  101.1700 hc      1  DFA        0.0409
     13 H3         98.5900  101.2000   99.4900 hc      1  DFA        0.0409
     14 C7        100.1900   98.3000  100.1700 cd      1  DFA       -0.0327
     15 C8        101.5800   98.1400   99.9300 cd      1  DFA       -0.0319
     16 O1        101.0400  100.3500   99.5600 os      1  DFA       -0.3174
     17 C9        102.0200   99.4000   99.6000 cc      1  DFA        0.0725
     18 C10       103.4700   99.8000   99.4200 c3      1  DFA        0.0403
     19 N2        104.3800   99.2900  100.4700 n3      1  DFA       -0.3248
     20 H4        103.5200  100.8900   99.3900 h1      1  DFA        0.0498
     21 H5        103.7900   99.4400   98.4400 h1      1  DFA        0.0498
     22 H7         93.1600   98.8300   98.5700 hn      1  DFA        0.1188
     23 H10        95.2700   97.5000   98.5100 ha      1  DFA        0.0648
     24 H11        97.9200   98.1300   98.3400 ha      1  DFA        0.0648
     25 H12        99.5000   97.5400  100.5200 ha      1  DFA        0.0648
     26 H13       102.1800   97.2500  100.0700 ha      1  DFA        0.0648
     27 O          86.1500  100.2300  102.5200 os      2  FDE       -0.3212
     28 C          86.5700  100.8200  103.6900 cc      2  FDE        0.0455
     29 C3         87.9300  100.8800  103.8200 cd      2  FDE       -0.0364
     30 C4         87.3400   99.9100  101.9300 cc      2  FDE        0.0725
     31 C5         88.4500  100.2800  102.6400 cd      2  FDE       -0.0322
     32 C6         87.3700   99.2900  100.5500 c3      2  FDE        0.0457
     33 N          88.5600   98.4400  100.3200 n3      2  FDE       -0.2919
     34 H          87.3500  100.1300   99.8400 h1      2  FDE        0.0503
     35 H1         86.4500   98.7200  100.3800 h1      2  FDE        0.0503
     36 C7         89.1100   98.6200   98.9500 c3      2  FDE        0.0245
     37 C8         88.4300   97.0200  100.7200 c3      2  FDE        0.0245
     38 C9         87.9700   96.7600  102.1800 c3      2  FDE        0.0639
     39 H2         89.4000   96.5200  100.6000 h1      2  FDE        0.0458
     40 H3         87.7200   96.5100  100.0500 h1      2  FDE        0.0458
     41 C1         88.3900   95.3600  102.6600 c3      2  FDE       -0.0377
     42 H4         87.9500   94.5800  102.0300 hc      2  FDE        0.0257
     43 H5         88.0700   95.1900  103.7000 hc      2  FDE        0.0257
     44 H6         89.4900   95.2500  102.6300 hc      2  FDE        0.0257
     45 O1         86.5500   96.8600  102.2800 oh      2  FDE       -0.3921
     46 H7         88.4500   97.5000  102.8400 h1      2  FDE        0.0611
     47 C10        90.5700   98.1500   98.7800 c3      2  FDE        0.0639
     48 H8         89.0800   99.6800   98.6800 h1      2  FDE        0.0458
     49 H9         88.4700   98.0800   98.2300 h1      2  FDE        0.0458
     50 O2         90.9800   98.4200   97.4400 oh      2  FDE       -0.3921
     51 C2         91.5200   98.8600   99.7800 c3      2  FDE       -0.0377
     52 H10        90.6300   97.0600   98.9500 h1      2  FDE        0.0611
     53 H11        91.3700   99.9400   99.7000 hc      2  FDE        0.0257
     54 H13        91.2600   98.5500  100.8000 hc      2  FDE        0.0257
     55 H14        90.9700   99.3800   97.3100 ho      2  FDE        0.2105
     56 H15        86.3200   96.9400  103.2300 ho      2  FDE        0.2105
     57 H16        85.7900  101.1700  104.3500 h4      2  FDE        0.0902
     58 H17        88.5000  101.3000  104.6400 ha      2  FDE        0.0645
     59 H18        89.4900  100.1600  102.3700 ha      2  FDE        0.0648
     60 O         110.6500  102.0800   97.3400 os      3  FDE       -0.3212
     61 C         110.1100  102.6200   96.2100 cc      3  FDE        0.0455
     62 C3        108.8100  102.2200   95.9800 cd      3  FDE       -0.0364
     63 C4        109.6300  101.3100   97.8100 cc      3  FDE        0.0725
     64 C5        108.4900  101.3600   97.0500 cd      3  FDE       -0.0322
     65 C6        109.7700  100.5700   99.1200 c3      3  FDE        0.0457
     66 N         108.7900   99.4700   99.2900 n3      3  FDE       -0.2919
     67 H         109.6500  101.3200   99.9100 h1      3  FDE        0.0503
     68 H1        110.7900  100.1900   99.2200 h1      3  FDE        0.0503
     69 C7        108.3000   99.3800  100.6900 c3      3  FDE        0.0245
     70 C8        109.2200   98.1400   98.7700 c3      3  FDE        0.0245
     71 C9        109.6900   98.1000   97.2900 c3      3  FDE        0.0639
     72 H2        108.3900   97.4400   98.8600 h1      3  FDE        0.0458
     73 H3        110.0400   97.7500   99.3900 h1      3  FDE        0.0458
     74 C1        109.6300   96.6700   96.7300 c3      3  FDE       -0.0377
     75 H4        110.2800   96.0000   97.3000 hc      3  FDE        0.0257
     76 H5        109.9600   96.6500   95.6800 hc      3  FDE        0.0257
     77 H6        108.6100   96.2700   96.7700 hc      3  FDE        0.0257
     78 O1        111.0300   98.5700   97.1700 oh      3  FDE       -0.3921
     79 H7        109.0100   98.7300   96.6800 h1      3  FDE        0.0611
     80 C10       106.9100   98.7100  100.8400 c3      3  FDE        0.0639
     81 H8        108.2200  100.3800  101.1200 h1      3  FDE        0.0458
     82 H9        109.0300   98.8300  101.3000 h1      3  FDE        0.0458
     83 O2        106.6900   98.5100  102.2400 oh      3  FDE       -0.3921
     84 C2        105.8100   99.5800  100.1500 c3      3  FDE       -0.0377
     85 H10       106.9200   97.7300  100.3600 h1      3  FDE        0.0611
     86 H11       106.0100  100.6400  100.3400 hc      3  FDE        0.0257
     87 H13       105.9600   99.4400   99.0700 hc      3  FDE        0.0257
     88 H14       106.5100   99.3800  102.6500 ho      3  FDE        0.2105
     89 H15       111.2200   98.7000   96.2200 ho      3  FDE        0.2105
     90 H16       110.7400  103.2800   95.6300 h4      3  FDE        0.0902
     91 H17       108.1700  102.5100   95.1600 ha      3  FDE        0.0645
     92 H18       107.5400  100.8600   97.2300 ha      3  FDE        0.0648
     93 O         100.5000  103.8100  100.1300 os      4  FDE       -0.3212
     94 C          99.9100  103.5400   98.9300 cc      4  FDE        0.0455
     95 C3        100.7900  103.1700   97.9400 cd      4  FDE       -0.0364
     96 C4        101.8200  103.5900   99.8400 cc      4  FDE        0.0725
     97 C5        102.0700  103.2200   98.5500 cd      4  FDE       -0.0322
     98 C6        102.8900  103.9400  100.8400 c3      4  FDE        0.0457
     99 N         103.8900  102.8600  101.0500 n3      4  FDE       -0.2919
    100 H         102.4100  104.2100  101.7900 h1      4  FDE        0.0503
    101 H1        103.3700  104.8600  100.4800 h1      4  FDE        0.0503
    102 C7        103.5500  102.0800  102.2700 c3      4  FDE        0.0245
    103 C8        105.2900  103.3600  100.9700 c3      4  FDE        0.0245
    104 C9        105.7800  103.5700   99.5100 c3      4  FDE        0.0639
    105 H2        105.9800  102.6500  101.4300 h1      4  FDE        0.0458
    106 H3        105.3900  104.3000  101.5300 h1      4  FDE        0.0458
    107 C1        107.3100  103.6600   99.4500 c3      4  FDE       -0.0377
    108 H4        107.6800  104.4900  100.0600 hc      4  FDE        0.0257
    109 H5        107.6500  103.8200   98.4200 hc      4  FDE        0.0257
    110 H6        107.7700  102.7400   99.8200 hc      4  FDE        0.0257
    111 O1        105.2400  104.7600   98.9300 oh      4  FDE       -0.3921
    112 H7        105.4600  102.7000   98.9100 h1      4  FDE        0.0611
    113 C10       104.4000  100.8200  102.5800 c3      4  FDE        0.0639
    114 H8        102.4900  101.7800  102.2100 h1      4  FDE        0.0458
    115 H9        103.6300  102.7600  103.1300 h1      4  FDE        0.0458
    116 O2        104.3300  100.5900  103.9800 oh      4  FDE       -0.3921
    117 C2        103.9200   99.5100  101.8700 c3      4  FDE       -0.0377
    118 H10       105.4500  100.9900  102.3500 h1      4  FDE        0.0611
    119 H11       102.8300   99.4600  101.9400 hc      4  FDE        0.0257
    120 H12       104.2800   98.6700  102.4700 hc      4  FDE        0.0257
    121 H14       103.4100  100.3900  104.2100 ho      4  FDE        0.2105
    122 H15       105.5500  104.8200   98.0100 ho      4  FDE        0.2105
    123 H16        98.8300  103.6500   98.8900 h4      4  FDE        0.0902
    124 H17       100.5600  102.9300   96.9100 ha      4  FDE        0.0645
    125 H18       103.0300  103.0400   98.0800 ha      4  FDE        0.0648
@<TRIPOS>BOND
     1     1     2    1
     2     2     3    1
     3     2     4    1
     4     2     5    1
     5     3     6    1
     6     3     7    2
     7     6     8    1
     8     8     9    2
     9     7     9    1
    10     8    10    1
    11    10    11    1
    12    10    12    1
    13    10    13    1
    14    11    14    2
    15    14    15    1
    16    11    16    1
    17    16    17    1
    18    15    17    2
    19    17    18    1
    20    18    19    1
    21    18    20    1
    22    18    21    1
    23     1    22    1
    24     7    23    1
    25     9    24    1
    26    14    25    1
    27    15    26    1
    28    27    28    1
    29    28    29    2
    30    27    30    1
    31    30    31    2
    32    29    31    1
    33    30    32    1
    34    32    33    1
    35    32    34    1
    36    32    35    1
    37    33    36    1
    38    33    37    1
    39    37    38    1
    40    37    39    1
    41    37    40    1
    42    38    41    1
    43    41    42    1
    44    41    43    1
    45    41    44    1
    46    38    45    1
    47    38    46    1
    48    36    47    1
    49    36    48    1
    50    36    49    1
    51    47    50    1
    52    47    51    1
    53    47    52    1
    54    51    53    1
    55    51    54    1
    56    50    55    1
    57    45    56    1
    58    28    57    1
    59    29    58    1
    60    31    59    1
    61     1    51    1
    62    60    61    1
    63    61    62    2
    64    60    63    1
    65    63    64    2
    66    62    64    1
    67    63    65    1
    68    65    66    1
    69    65    67    1
    70    65    68    1
    71    66    69    1
    72    66    70    1
    73    70    71    1
    74    70    72    1
    75    70    73    1
    76    71    74    1
    77    74    75    1
    78    74    76    1
    79    74    77    1
    80    71    78    1
    81    71    79    1
    82    69    80    1
    83    69    81    1
    84    69    82    1
    85    80    83    1
    86    80    84    1
    87    80    85    1
    88    84    86    1
    89    84    87    1
    90    83    88    1
    91    78    89    1
    92    61    90    1
    93    62    91    1
    94    64    92    1
    95    19    84    1
    96    93    94    1
    97    94    95    2
    98    93    96    1
    99    96    97    2
   100    95    97    1
   101    96    98    1
   102    98    99    1
   103    98   100    1
   104    98   101    1
   105    99   102    1
   106    99   103    1
   107   103   104    1
   108   103   105    1
   109   103   106    1
   110   104   107    1
   111   107   108    1
   112   107   109    1
   113   107   110    1
   114   104   111    1
   115   104   112    1
   116   102   113    1
   117   102   114    1
   118   102   115    1
   119   113   116    1
   120   113   117    1
   121   113   118    1
   122   117   119    1
   123   117   120    1
   124   116   121    1
   125   111   122    1
   126    94   123    1
   127    95   124    1
   128    97   125    1
   129    19   117    1
