@<TRIPOS>MOLECULE
DFA+FDE+FDE
    93    96  1  0  0
SMALL
gas

@<TRIPOS>ATOM
      1 N1         90.1200   97.5600   99.4300 n3      1  DFA       -0.3248
      2 C          90.5700   98.7000  100.2300 c3      1  DFA        0.0403
      3 C1         92.0700   98.7900  100.2600 cc      1  DFA        0.0725
      4 H          90.1900   98.6000  101.2600 h1      1  DFA        0.0498
      5 H1         90.1600   99.6300   99.8100 h1      1  DFA        0.0498
      6 O          92.7100   99.8400   99.6700 os      1  DFA       -0.3174
      7 C2         92.8900   97.9100  100.9200 cd      1  DFA       -0.0319
      8 C3         94.0200   99.5700   99.9900 cc      1  DFA        0.0654
      9 C4         94.2000   98.4300  100.7400 cd      1  DFA       -0.0327
     10 C5         95.0900  100.5500   99.6100 c3      1  DFA        0.0418
     11 C6         96.5000  100.0200   99.6100 cc      1  DFA        0.0654
     12 H2         95.0300  101.4100  100.2800 hc      1  DFA        0.0409
     13 H3         94.8700  100.9400   98.6100 hc      1  DFA        0.0409
     14 C7         96.9400   98.9600   98.8500 cd      1  DFA       -0.0327
     15 C8         98.3600   99.0400   98.9100 cd      1  DFA       -0.0319
     16 O1         97.5000  100.7600  100.1800 os      1  DFA       -0.3174
     17 C9         98.6200  100.1200   99.7100 cc      1  DFA        0.0725
     18 C10        99.9400  100.8300   99.7700 c3      1  DFA        0.0403
     19 N2        101.1400   99.9600   99.8100 n3      1  DFA       -0.3248
     20 H4         99.9400  101.5000  100.6400 h1      1  DFA        0.0498
     21 H5         99.9600  101.4700   98.8800 h1      1  DFA        0.0498
     22 H6         89.1000   97.5500   99.3900 hn      1  DFA        0.1188
     23 H7         90.4400   97.6700   98.4700 hn      1  DFA        0.1188
     24 H10        92.6100   97.0200  101.4700 ha      1  DFA        0.0648
     25 H11        95.1200   98.0300  101.1400 ha      1  DFA        0.0648
     26 H12        96.3500   98.3000   98.2300 ha      1  DFA        0.0648
     27 H13        99.0700   98.4400   98.3400 ha      1  DFA        0.0648
     28 O         101.3900  105.0500   96.0200 os      2  FDE       -0.3212
     29 C         102.3500  105.9900   96.2800 cc      2  FDE        0.0455
     30 C3        103.6300  105.5100   96.1800 cd      2  FDE       -0.0364
     31 C4        102.1500  103.9300   95.7800 cc      2  FDE        0.0725
     32 C5        103.5000  104.1400   95.8400 cd      2  FDE       -0.0322
     33 C6        101.4800  102.6200   95.4500 c3      2  FDE        0.0457
     34 N         102.3300  101.4300   95.7400 n3      2  FDE       -0.2919
     35 H         101.2200  102.6600   94.3900 h1      2  FDE        0.0503
     36 H1        100.5300  102.5500   96.0000 h1      2  FDE        0.0503
     37 C7        102.3600  100.4900   94.5900 c3      2  FDE        0.0245
     38 C8        102.0300  100.7800   97.0400 c3      2  FDE        0.0245
     39 C9        102.5500  101.5400   98.3000 c3      2  FDE        0.0639
     40 H2        102.5100   99.8000   97.0800 h1      2  FDE        0.0458
     41 H3        100.9600  100.6000   97.1300 h1      2  FDE        0.0458
     42 C1        102.4300  100.6700   99.5900 c3      2  FDE       -0.0377
     43 H5        102.6500  101.3100  100.4600 hc      2  FDE        0.0257
     44 H6        103.2400   99.9400   99.5200 hc      2  FDE        0.0257
     45 O1        101.9000  102.8000   98.5100 oh      2  FDE       -0.3921
     46 H7        103.6200  101.7300   98.1400 h1      2  FDE        0.0611
     47 C10       103.5400   99.4800   94.6200 c3      2  FDE        0.0639
     48 H8        102.4500  101.0600   93.6600 h1      2  FDE        0.0458
     49 H9        101.4100   99.9400   94.5500 h1      2  FDE        0.0458
     50 O2        103.4800   98.6700   93.4500 oh      2  FDE       -0.3921
     51 C2        104.9100  100.1900   94.6800 c3      2  FDE       -0.0377
     52 H10       103.4400   98.8300   95.5000 h1      2  FDE        0.0611
     53 H11       105.0300  100.8900   93.8400 hc      2  FDE        0.0257
     54 H12       105.7200   99.4600   94.6300 hc      2  FDE        0.0257
     55 H13       105.0200  100.7500   95.6200 hc      2  FDE        0.0257
     56 H14       103.6100   99.2500   92.6800 ho      2  FDE        0.2105
     57 H15       102.3900  103.2800   99.2000 ho      2  FDE        0.2105
     58 H16       101.9900  106.9800   96.5200 h4      2  FDE        0.0902
     59 H17       104.5500  106.0600   96.3400 ha      2  FDE        0.0645
     60 H18       104.2900  103.4200   95.6900 ha      2  FDE        0.0648
     61 O          99.5900   97.3200  106.6000 os      3  FDE       -0.3212
     62 C          98.2900   97.7600  106.6000 cc      3  FDE        0.0455
     63 C3         97.8700   98.2300  105.3800 cd      3  FDE       -0.0364
     64 C4         99.9600   97.5600  105.3000 cc      3  FDE        0.0725
     65 C5         98.9800   98.0900  104.5100 cd      3  FDE       -0.0322
     66 C6        101.3300   97.1600  104.8100 c3      3  FDE        0.0457
     67 N         101.8100   98.0500  103.7200 n3      3  FDE       -0.2919
     68 H         101.2700   96.1300  104.4500 h1      3  FDE        0.0503
     69 H1        102.0400   97.1600  105.6500 h1      3  FDE        0.0503
     70 C7        102.2400   97.3100  102.5100 c3      3  FDE        0.0245
     71 C8        102.7100   99.1600  104.1500 c3      3  FDE        0.0245
     72 C9        102.0500  100.1300  105.1700 c3      3  FDE        0.0639
     73 H2        102.9900   99.7500  103.2800 h1      3  FDE        0.0458
     74 H3        103.6300   98.7500  104.5800 h1      3  FDE        0.0458
     75 C1        102.6600  101.5500  105.0600 c3      3  FDE       -0.0377
     76 H4        103.7400  101.5300  105.2600 hc      3  FDE        0.0257
     77 H5        102.1900  102.2300  105.7800 hc      3  FDE        0.0257
     78 H6        102.5000  101.9600  104.0500 hc      3  FDE        0.0257
     79 O1        102.2500   99.6600  106.5000 oh      3  FDE       -0.3921
     80 H7        100.9800  100.2100  104.9500 h1      3  FDE        0.0611
     81 C10       102.3700   98.1900  101.2400 c3      3  FDE        0.0639
     82 H8        101.5000   96.5300  102.2900 h1      3  FDE        0.0458
     83 H9        103.2000   96.8100  102.7000 h1      3  FDE        0.0458
     84 O2        102.5700   97.3500  100.1000 oh      3  FDE       -0.3921
     85 C2        101.1300   99.1100  101.0300 c3      3  FDE       -0.0377
     86 H10       103.2600   98.8200  101.3700 h1      3  FDE        0.0611
     87 H11       100.2400   98.4700  101.0300 hc      3  FDE        0.0257
     88 H13       101.0400   99.7700  101.9000 hc      3  FDE        0.0257
     89 H14       101.7300   96.8900   99.9400 ho      3  FDE        0.2105
     90 H15       101.6400  100.1500  107.0800 ho      3  FDE        0.2105
     91 H16        97.7600   97.6700  107.5400 h4      3  FDE        0.0902
     92 H17        96.8900   98.6200  105.1300 ha      3  FDE        0.0645
     93 H18        99.0200   98.3500  103.4600 ha      3  FDE        0.0648
@<TRIPOS>BOND
     1     1     2    1
     2     2     3    1
     3     2     4    1
     4     2     5    1
     5     3     6    1
     6     3     7    2
     7     6     8    1
     8     8     9    2
     9     7     9    1
    10     8    10    1
    11    10    11    1
    12    10    12    1
    13    10    13    1
    14    11    14    2
    15    14    15    1
    16    11    16    1
    17    16    17    1
    18    15    17    2
    19    17    18    1
    20    18    19    1
    21    18    20    1
    22    18    21    1
    23     1    22    1
    24     1    23    1
    25     7    24    1
    26     9    25    1
    27    14    26    1
    28    15    27    1
    29    28    29    1
    30    29    30    2
    31    28    31    1
    32    31    32    2
    33    30    32    1
    34    31    33    1
    35    33    34    1
    36    33    35    1
    37    33    36    1
    38    34    37    1
    39    34    38    1
    40    38    39    1
    41    38    40    1
    42    38    41    1
    43    39    42    1
    44    42    43    1
    45    42    44    1
    46    39    45    1
    47    39    46    1
    48    37    47    1
    49    37    48    1
    50    37    49    1
    51    47    50    1
    52    47    51    1
    53    47    52    1
    54    51    53    1
    55    51    54    1
    56    51    55    1
    57    50    56    1
    58    45    57    1
    59    29    58    1
    60    30    59    1
    61    32    60    1
    62    19    42    1
    63    61    62    1
    64    62    63    2
    65    61    64    1
    66    64    65    2
    67    63    65    1
    68    64    66    1
    69    66    67    1
    70    66    68    1
    71    66    69    1
    72    67    70    1
    73    67    71    1
    74    71    72    1
    75    71    73    1
    76    71    74    1
    77    72    75    1
    78    75    76    1
    79    75    77    1
    80    75    78    1
    81    72    79    1
    82    72    80    1
    83    70    81    1
    84    70    82    1
    85    70    83    1
    86    81    84    1
    87    81    85    1
    88    81    86    1
    89    85    87    1
    90    85    88    1
    91    84    89    1
    92    79    90    1
    93    62    91    1
    94    63    92    1
    95    65    93    1
    96    19    85    1
