@<TRIPOS>MOLECULE
DFA+FDE+FDE+FDE
   125   129  1  0  0
SMALL
gas

@<TRIPOS>ATOM
      1 N1         95.8500   99.1500  100.8200 n3      1  DFA       -0.3248
      2 C          96.9300  100.0500  101.3100 c3      1  DFA        0.0403
      3 C1         98.3400   99.5400  101.2200 cc      1  DFA        0.0725
      4 H          96.7200  100.3000  102.3600 h1      1  DFA        0.0498
      5 H1         96.9200  100.9900  100.7600 h1      1  DFA        0.0498
      6 O          99.1200   99.9000  100.1700 os      1  DFA       -0.3174
      7 C2         98.9700   98.8000  102.1900 cd      1  DFA       -0.0319
      8 C3        100.3200   99.3500  100.5200 cc      1  DFA        0.0654
      9 C4        100.3000   98.6600  101.7200 cd      1  DFA       -0.0327
     10 C5        101.5100   99.5100   99.6100 c3      1  DFA        0.0418
     11 C6        102.8500   99.2800  100.2500 cc      1  DFA        0.0654
     12 H2        101.4900  100.5300   99.1900 hc      1  DFA        0.0409
     13 H3        101.4000   98.8400   98.7500 hc      1  DFA        0.0409
     14 C7        103.4000   98.0400  100.4700 cd      1  DFA       -0.0327
     15 C8        104.7200   98.3100  100.9300 cd      1  DFA       -0.0319
     16 O1        103.6900  100.3300  100.5200 os      1  DFA       -0.3174
     17 C9        104.8200   99.6700  100.9300 cc      1  DFA        0.0725
     18 C10       106.0700  100.4600  101.2200 c3      1  DFA        0.0403
     19 N2        107.2900   99.7400  100.7900 n3      1  DFA       -0.3248
     20 H4        106.1200  100.6700  102.3000 h1      1  DFA        0.0498
     21 H5        105.9900  101.4100  100.6900 h1      1  DFA        0.0498
     22 H8        107.4100   98.9200  101.3800 hn      1  DFA        0.1188
     23 H10        98.5600   98.4200  103.1200 ha      1  DFA        0.0648
     24 H11       101.1200   98.1500  102.2100 ha      1  DFA        0.0648
     25 H12       102.9500   97.0700  100.2900 ha      1  DFA        0.0648
     26 H13       105.4800   97.5800  101.1800 ha      1  DFA        0.0648
     27 O          91.2100   96.1200   99.8200 os      2  FDE       -0.3212
     28 C          90.8000   96.0500   98.5200 cc      2  FDE        0.0455
     29 C3         91.4700   95.1100   97.7700 cd      2  FDE       -0.0364
     30 C4         92.2100   95.1800   99.8500 cc      2  FDE        0.0725
     31 C5         92.4100   94.5300   98.6600 cd      2  FDE       -0.0322
     32 C6         92.9600   94.8800  101.1100 c3      2  FDE        0.0457
     33 N          94.4300   94.9400  100.9500 n3      2  FDE       -0.2919
     34 H          92.6500   93.8700  101.4100 h1      2  FDE        0.0503
     35 H1         92.6300   95.5600  101.9100 h1      2  FDE        0.0503
     36 C7         95.1300   93.9800  101.8400 c3      2  FDE        0.0245
     37 C8         94.9900   96.3200  101.0000 c3      2  FDE        0.0245
     38 C9         95.3200   96.9300   99.6100 c3      2  FDE        0.0639
     39 H2         95.9200   96.3200  101.5700 h1      2  FDE        0.0458
     40 H3         94.3000   96.9700  101.5400 h1      2  FDE        0.0458
     41 C1         96.1900   98.2200   99.7100 c3      2  FDE       -0.0377
     42 H5         96.1800   98.7500   98.7500 hc      2  FDE        0.0257
     43 H6         97.2200   97.8600   99.8300 hc      2  FDE        0.0257
     44 O1         94.1600   97.1800   98.8300 oh      2  FDE       -0.3921
     45 H7         95.9300   96.1900   99.0700 h1      2  FDE        0.0611
     46 C10        96.5600   93.6400  101.3700 c3      2  FDE        0.0639
     47 H8         94.5700   93.0400  101.8800 h1      2  FDE        0.0458
     48 H9         95.1600   94.3900  102.8600 h1      2  FDE        0.0458
     49 O2         97.1800   92.7800  102.3300 oh      2  FDE       -0.3921
     50 C2         96.5700   92.9500   99.9900 c3      2  FDE       -0.0377
     51 H10        97.1500   94.5600  101.3000 h1      2  FDE        0.0611
     52 H11        95.9600   92.0400  100.0000 hc      2  FDE        0.0257
     53 H12        97.5900   92.6700   99.7000 hc      2  FDE        0.0257
     54 H13        96.1800   93.6200   99.2100 hc      2  FDE        0.0257
     55 H14        96.6700   91.9500  102.3400 ho      2  FDE        0.2105
     56 H15        93.6200   97.8400   99.3000 ho      2  FDE        0.2105
     57 H16        90.0000   96.7200   98.2300 h4      2  FDE        0.0902
     58 H17        91.3300   94.8700   96.7300 ha      2  FDE        0.0645
     59 H18        93.1300   93.7500   98.4400 ha      2  FDE        0.0648
     60 O          97.9500  104.9400  101.9400 os      3  FDE       -0.3212
     61 C          98.4900  104.7300  103.1800 cc      3  FDE        0.0455
     62 C3         97.9200  103.6800  103.8600 cd      3  FDE       -0.0364
     63 C4         96.9900  103.9600  101.8800 cc      3  FDE        0.0725
     64 C5         96.9300  103.1600  102.9900 cd      3  FDE       -0.0322
     65 C6         96.2000  103.7600  100.6000 c3      3  FDE        0.0457
     66 N          95.0400  102.8400  100.7400 n3      3  FDE       -0.2919
     67 H          96.9100  103.3600   99.8700 h1      3  FDE        0.0503
     68 H1         95.8700  104.7300  100.2200 h1      3  FDE        0.0503
     69 C7         94.8900  101.9900   99.5300 c3      3  FDE        0.0245
     70 C8         93.7600  103.4900  101.1400 c3      3  FDE        0.0245
     71 C9         93.7800  104.3300  102.4400 c3      3  FDE        0.0639
     72 H2         93.0000  102.7100  101.2800 h1      3  FDE        0.0458
     73 H3         93.4000  104.1300  100.3200 h1      3  FDE        0.0458
     74 C1         92.3600  104.5100  103.0100 c3      3  FDE       -0.0377
     75 H4         91.7100  105.0200  102.2800 hc      3  FDE        0.0257
     76 H5         92.3800  105.1100  103.9300 hc      3  FDE        0.0257
     77 H6         91.9100  103.5400  103.2500 hc      3  FDE        0.0257
     78 O1         94.3300  105.6200  102.1900 oh      3  FDE       -0.3921
     79 H7         94.3800  103.8000  103.1900 h1      3  FDE        0.0611
     80 C10        94.0300  100.7100   99.7400 c3      3  FDE        0.0639
     81 H8         95.8700  101.6600   99.1600 h1      3  FDE        0.0458
     82 H9         94.4400  102.5800   98.7200 h1      3  FDE        0.0458
     83 O2         93.9000  100.0400   98.4900 oh      3  FDE       -0.3921
     84 C2         94.4800   99.7400  100.8700 c3      3  FDE       -0.0377
     85 H10        93.0200  101.0500  100.0100 h1      3  FDE        0.0611
     86 H12        93.7500   98.9300  100.9100 hc      3  FDE        0.0257
     87 H13        94.3700  100.2700  101.8300 hc      3  FDE        0.0257
     88 H14        94.7400   99.5700   98.3300 ho      3  FDE        0.2105
     89 H15        94.4900  106.0500  103.0500 ho      3  FDE        0.2105
     90 H16        99.2900  105.3900  103.4800 h4      3  FDE        0.0902
     91 H17        98.1800  103.3100  104.8500 ha      3  FDE        0.0645
     92 H18        96.2800  102.3200  103.1700 ha      3  FDE        0.0648
     93 O         107.7600  105.5700   97.6200 os      4  FDE       -0.3212
     94 C         108.7800  106.4400   97.9100 cc      4  FDE        0.0455
     95 C3        110.0200  105.8500   97.8900 cd      4  FDE       -0.0364
     96 C4        108.4300  104.4000   97.4300 cc      4  FDE        0.0725
     97 C5        109.7900  104.4900   97.5700 cd      4  FDE       -0.0322
     98 C6        107.6700  103.1500   97.0500 c3      4  FDE        0.0457
     99 N         108.4900  101.9100   97.1400 n3      4  FDE       -0.2919
    100 H         107.3000  103.2900   96.0300 h1      4  FDE        0.0503
    101 H1        106.7900  103.0600   97.6900 h1      4  FDE        0.0503
    102 C7        108.5600  101.1900   95.8400 c3      4  FDE        0.0245
    103 C8        108.1700  101.0500   98.3100 c3      4  FDE        0.0245
    104 C9        108.6400  101.6000   99.6800 c3      4  FDE        0.0639
    105 H2        108.6400  100.0700   98.1900 h1      4  FDE        0.0458
    106 H3        107.0800  100.8700   98.3400 h1      4  FDE        0.0458
    107 C1        108.5500  100.5200  100.7900 c3      4  FDE       -0.0377
    108 H5        108.7100  100.9800  101.7700 hc      4  FDE        0.0257
    109 H6        109.3800   99.8200  100.6300 hc      4  FDE        0.0257
    110 O1        107.9200  102.7700  100.0800 oh      4  FDE       -0.3921
    111 H7        109.7000  101.8700   99.5800 h1      4  FDE        0.0611
    112 C10       109.7200  100.1800   95.7300 c3      4  FDE        0.0639
    113 H8        108.6800  101.9200   95.0300 h1      4  FDE        0.0458
    114 H9        107.6100  100.6700   95.6700 h1      4  FDE        0.0458
    115 O2        109.6900   99.5700   94.4400 oh      4  FDE       -0.3921
    116 C2        111.1000  100.8500   95.9400 c3      4  FDE       -0.0377
    117 H10       109.6000   99.3900   96.4800 h1      4  FDE        0.0611
    118 H11       111.2500  101.6800   95.2400 hc      4  FDE        0.0257
    119 H12       111.9100  100.1200   95.7800 hc      4  FDE        0.0257
    120 H13       111.2000  101.2400   96.9600 hc      4  FDE        0.0257
    121 H14       109.8300  100.2700   93.7800 ho      4  FDE        0.2105
    122 H15       108.3700  103.1600  100.8500 ho      4  FDE        0.2105
    123 H16       108.5000  107.4600   98.1200 h4      4  FDE        0.0902
    124 H17       110.9800  106.3300   98.0800 ha      4  FDE        0.0645
    125 H18       110.5300  103.7100   97.4500 ha      4  FDE        0.0648
@<TRIPOS>BOND
     1     1     2    1
     2     2     3    1
     3     2     4    1
     4     2     5    1
     5     3     6    1
     6     3     7    2
     7     6     8    1
     8     8     9    2
     9     7     9    1
    10     8    10    1
    11    10    11    1
    12    10    12    1
    13    10    13    1
    14    11    14    2
    15    14    15    1
    16    11    16    1
    17    16    17    1
    18    15    17    2
    19    17    18    1
    20    18    19    1
    21    18    20    1
    22    18    21    1
    23    19    22    1
    24     7    23    1
    25     9    24    1
    26    14    25    1
    27    15    26    1
    28    27    28    1
    29    28    29    2
    30    27    30    1
    31    30    31    2
    32    29    31    1
    33    30    32    1
    34    32    33    1
    35    32    34    1
    36    32    35    1
    37    33    36    1
    38    33    37    1
    39    37    38    1
    40    37    39    1
    41    37    40    1
    42    38    41    1
    43    41    42    1
    44    41    43    1
    45    38    44    1
    46    38    45    1
    47    36    46    1
    48    36    47    1
    49    36    48    1
    50    46    49    1
    51    46    50    1
    52    46    51    1
    53    50    52    1
    54    50    53    1
    55    50    54    1
    56    49    55    1
    57    44    56    1
    58    28    57    1
    59    29    58    1
    60    31    59    1
    61     1    41    1
    62    60    61    1
    63    61    62    2
    64    60    63    1
    65    63    64    2
    66    62    64    1
    67    63    65    1
    68    65    66    1
    69    65    67    1
    70    65    68    1
    71    66    69    1
    72    66    70    1
    73    70    71    1
    74    70    72    1
    75    70    73    1
    76    71    74    1
    77    74    75    1
    78    74    76    1
    79    74    77    1
    80    71    78    1
    81    71    79    1
    82    69    80    1
    83    69    81    1
    84    69    82    1
    85    80    83    1
    86    80    84    1
    87    80    85    1
    88    84    86    1
    89    84    87    1
    90    83    88    1
    91    78    89    1
    92    61    90    1
    93    62    91    1
    94    64    92    1
    95     1    84    1
    96    93    94    1
    97    94    95    2
    98    93    96    1
    99    96    97    2
   100    95    97    1
   101    96    98    1
   102    98    99    1
   103    98   100    1
   104    98   101    1
   105    99   102    1
   106    99   103    1
   107   103   104    1
   108   103   105    1
   109   103   106    1
   110   104   107    1
   111   107   108    1
   112   107   109    1
   113   104   110    1
   114   104   111    1
   115   102   112    1
   116   102   113    1
   117   102   114    1
   118   112   115    1
   119   112   116    1
   120   112   117    1
   121   116   118    1
   122   116   119    1
   123   116   120    1
   124   115   121    1
   125   110   122    1
   126    94   123    1
   127    95   124    1
   128    97   125    1
   129    19   107    1
