@<TRIPOS>MOLECULE
DFA+FDE+FDE+FDE
   125   129  1  0  0
SMALL
gas

@<TRIPOS>ATOM
      1 N1         92.8000   99.3900  100.2300 n3      1  DFA       -0.3248
      2 C          93.7600  100.5000  100.1600 c3      1  DFA        0.0403
      3 C1         95.2000  100.1100  100.3600 cc      1  DFA        0.0725
      4 H          93.5100  101.2200  100.9600 h1      1  DFA        0.0498
      5 H1         93.6500  101.0300   99.2100 h1      1  DFA        0.0498
      6 O          96.1800  101.0600  100.2100 os      1  DFA       -0.3174
      7 C2         95.6400   98.9400  100.9300 cd      1  DFA       -0.0319
      8 C3         97.2700  100.4200  100.7300 cc      1  DFA        0.0654
      9 C4         97.0200   99.1400  101.1800 cd      1  DFA       -0.0327
     10 C5         98.5200  101.1900  101.0400 c3      1  DFA        0.0418
     11 C6         99.7800  100.7600  100.3300 cc      1  DFA        0.0654
     12 H2         98.7000  101.1600  102.1200 hc      1  DFA        0.0409
     13 H3         98.3500  102.2500  100.8100 hc      1  DFA        0.0409
     14 C7         99.9500   99.6100   99.5900 cd      1  DFA       -0.0327
     15 C8        101.3100   99.6400   99.1900 cd      1  DFA       -0.0319
     16 O1        100.9000  101.5300  100.4500 os      1  DFA       -0.3174
     17 C9        101.8100  100.7900   99.7500 cc      1  DFA        0.0725
     18 C10       103.2100  101.3100   99.6000 c3      1  DFA        0.0403
     19 N2        104.2900  100.3300   99.9200 n3      1  DFA       -0.3248
     20 H4        103.3100  102.2100  100.2200 h1      1  DFA        0.0498
     21 H5        103.3000  101.6500   98.5600 h1      1  DFA        0.0498
     22 H6         91.8700   99.7700  100.3900 hn      1  DFA        0.1188
     23 H10        95.0400   98.0800  101.2300 ha      1  DFA        0.0648
     24 H11        97.7000   98.4800  101.7000 ha      1  DFA        0.0648
     25 H12        99.2200   98.8500   99.3600 ha      1  DFA        0.0648
     26 H13       101.8400   98.9100   98.5900 ha      1  DFA        0.0648
     27 O          87.8500   96.1800   98.7100 os      2  FDE       -0.3212
     28 C          87.6000   96.0900   97.3600 cc      2  FDE        0.0455
     29 C3         88.5500   95.3900   96.6700 cd      2  FDE       -0.0364
     30 C4         89.0300   95.4900   98.8200 cc      2  FDE        0.0725
     31 C5         89.5000   94.9800   97.6400 cd      2  FDE       -0.0322
     32 C6         89.6700   95.2800  100.1700 c3      2  FDE        0.0457
     33 N          91.1500   95.1700  100.1200 n3      2  FDE       -0.2919
     34 H          89.2300   94.3600  100.5700 h1      2  FDE        0.0503
     35 H1         89.3700   96.0900  100.8500 h1      2  FDE        0.0503
     36 C7         91.6500   94.1200  101.0300 c3      2  FDE        0.0245
     37 C8         91.8800   96.4700  100.2400 c3      2  FDE        0.0245
     38 C9         91.5900   97.5000   99.1200 c3      2  FDE        0.0639
     39 H2         92.9500   96.2700  100.2100 h1      2  FDE        0.0458
     40 H3         91.6600   96.9200  101.2100 h1      2  FDE        0.0458
     41 C1         92.7300   98.5500   99.0200 c3      2  FDE       -0.0377
     42 H5         92.5300   99.1900   98.1500 hc      2  FDE        0.0257
     43 H6         93.6800   98.0400   98.8500 hc      2  FDE        0.0257
     44 O1         90.3600   98.1900   99.3600 oh      2  FDE       -0.3921
     45 H7         91.5400   96.9700   98.1600 h1      2  FDE        0.0611
     46 C10        93.1000   93.6600  100.7400 c3      2  FDE        0.0639
     47 H8         91.0100   93.2400  100.9600 h1      2  FDE        0.0458
     48 H9         91.5900   94.4800  102.0700 h1      2  FDE        0.0458
     49 O2         93.4600   92.6200  101.6600 oh      2  FDE       -0.3921
     50 C2         93.2700   93.1300   99.3000 c3      2  FDE       -0.0377
     51 H10        93.7900   94.4900  100.8800 h1      2  FDE        0.0611
     52 H11        92.5600   92.3100   99.0900 hc      2  FDE        0.0257
     53 H12        94.2900   92.7500   99.1400 hc      2  FDE        0.0257
     54 H13        93.0900   93.9200   98.5600 hc      2  FDE        0.0257
     55 H14        92.8600   91.8700  101.5000 ho      2  FDE        0.2105
     56 H15        90.1000   98.6500   98.5500 ho      2  FDE        0.2105
     57 H16        86.7000   96.5800   97.0100 h4      2  FDE        0.0902
     58 H17        88.5700   95.1800   95.6100 ha      2  FDE        0.0645
     59 H18        90.3900   94.3900   97.4800 ha      2  FDE        0.0648
     60 O         104.4200  105.4400   96.3000 os      3  FDE       -0.3212
     61 C         105.3200  106.4500   96.5400 cc      3  FDE        0.0455
     62 C3        106.6300  106.0600   96.4400 cd      3  FDE       -0.0364
     63 C4        105.2600  104.3800   96.0500 cc      3  FDE        0.0725
     64 C5        106.6000  104.6800   96.1200 cd      3  FDE       -0.0322
     65 C6        104.6800  103.0100   95.8100 c3      3  FDE        0.0457
     66 N         105.6800  101.9100   95.8900 n3      3  FDE       -0.2919
     67 H         104.2000  103.0200   94.8200 h1      3  FDE        0.0503
     68 H1        103.8700  102.8400   96.5300 h1      3  FDE        0.0503
     69 C7        105.8200  101.2000   94.6000 c3      3  FDE        0.0245
     70 C8        105.5200  101.0300   97.0800 c3      3  FDE        0.0245
     71 C9        106.0000  101.6500   98.4300 c3      3  FDE        0.0639
     72 H2        106.1100  100.1200   96.9400 h1      3  FDE        0.0458
     73 H3        104.4800  100.7000   97.1400 h1      3  FDE        0.0458
     74 C1        105.7100  100.7300   99.6500 c3      3  FDE       -0.0377
     75 H5        106.1300  101.2300  100.5200 hc      3  FDE        0.0257
     76 H6        106.3000   99.8100   99.5200 hc      3  FDE        0.0257
     77 O1        105.4900  102.9600   98.6900 oh      3  FDE       -0.3921
     78 H7        107.0900  101.7300   98.3500 h1      3  FDE        0.0611
     79 C10       107.1000  100.3400   94.4600 c3      3  FDE        0.0639
     80 H8        105.8300  101.9300   93.7800 h1      3  FDE        0.0458
     81 H9        104.9400  100.5600   94.4400 h1      3  FDE        0.0458
     82 O2        107.1300   99.7400   93.1700 oh      3  FDE       -0.3921
     83 C2        108.3900  101.1800   94.6500 c3      3  FDE       -0.0377
     84 H10       107.0900   99.5400   95.2100 h1      3  FDE        0.0611
     85 H11       108.4200  102.0200   93.9600 hc      3  FDE        0.0257
     86 H12       109.2800  100.5600   94.4800 hc      3  FDE        0.0257
     87 H13       108.4500  101.5700   95.6800 hc      3  FDE        0.0257
     88 H14       107.1700  100.4600   92.5100 ho      3  FDE        0.2105
     89 H15       105.9600  103.3100   99.4600 ho      3  FDE        0.2105
     90 H16       104.8900  107.4100   96.7900 h4      3  FDE        0.0902
     91 H17       107.5100  106.6700   96.6000 ha      3  FDE        0.0645
     92 H18       107.4400  104.0200   95.9800 ha      3  FDE        0.0648
     93 O         100.6800  102.9500  104.3600 os      4  FDE       -0.3212
     94 C         100.0400  102.2300  105.3300 cc      4  FDE        0.0455
     95 C3        100.8900  101.5400  106.1700 cd      4  FDE       -0.0364
     96 C4        102.0000  102.6700  104.6300 cc      4  FDE        0.0725
     97 C5        102.1900  101.8400  105.7100 cd      4  FDE       -0.0322
     98 C6        103.0900  103.2400  103.7500 c3      4  FDE        0.0457
     99 N         104.3800  102.5200  103.8600 n3      4  FDE       -0.2919
    100 H         103.2000  104.2900  104.0300 h1      4  FDE        0.0503
    101 H1        102.7300  103.2300  102.7100 h1      4  FDE        0.0503
    102 C7        105.4800  103.4500  104.2400 c3      4  FDE        0.0245
    103 C8        104.7000  101.6700  102.6800 c3      4  FDE        0.0245
    104 C9        103.8800  100.3500  102.5100 c3      4  FDE        0.0639
    105 H2        105.7400  101.3500  102.7200 h1      4  FDE        0.0458
    106 H3        104.6100  102.2900  101.7800 h1      4  FDE        0.0458
    107 C1        104.1600   99.5600  101.1900 c3      4  FDE       -0.0377
    108 H5        103.3500   98.8300  101.0700 hc      4  FDE        0.0257
    109 H6        105.0700   98.9700  101.3400 hc      4  FDE        0.0257
    110 O1        102.4700  100.5100  102.6700 oh      4  FDE       -0.3921
    111 H7        104.2000   99.7000  103.3300 h1      4  FDE        0.0611
    112 C10       106.7800  102.7700  104.7300 c3      4  FDE        0.0639
    113 H8        105.1300  104.1000  105.0500 h1      4  FDE        0.0458
    114 H9        105.7100  104.1000  103.3800 h1      4  FDE        0.0458
    115 O2        107.7400  103.7800  105.0400 oh      4  FDE       -0.3921
    116 C2        106.5500  101.8900  105.9800 c3      4  FDE       -0.0377
    117 H10       107.1900  102.1500  103.9300 h1      4  FDE        0.0611
    118 H11       106.1000  102.4700  106.7900 hc      4  FDE        0.0257
    119 H12       107.4900  101.4700  106.3300 hc      4  FDE        0.0257
    120 H13       105.8700  101.0500  105.7400 hc      4  FDE        0.0257
    121 H14       107.3700  104.3200  105.7700 ho      4  FDE        0.2105
    122 H15       102.1400  101.0500  101.9300 ho      4  FDE        0.2105
    123 H16        98.9600  102.2700  105.3200 h4      4  FDE        0.0902
    124 H17       100.6200  100.9000  107.0000 ha      4  FDE        0.0645
    125 H18       103.1300  101.4700  106.1000 ha      4  FDE        0.0648
@<TRIPOS>BOND
     1     1     2    1
     2     2     3    1
     3     2     4    1
     4     2     5    1
     5     3     6    1
     6     3     7    2
     7     6     8    1
     8     8     9    2
     9     7     9    1
    10     8    10    1
    11    10    11    1
    12    10    12    1
    13    10    13    1
    14    11    14    2
    15    14    15    1
    16    11    16    1
    17    16    17    1
    18    15    17    2
    19    17    18    1
    20    18    19    1
    21    18    20    1
    22    18    21    1
    23     1    22    1
    24     7    23    1
    25     9    24    1
    26    14    25    1
    27    15    26    1
    28    27    28    1
    29    28    29    2
    30    27    30    1
    31    30    31    2
    32    29    31    1
    33    30    32    1
    34    32    33    1
    35    32    34    1
    36    32    35    1
    37    33    36    1
    38    33    37    1
    39    37    38    1
    40    37    39    1
    41    37    40    1
    42    38    41    1
    43    41    42    1
    44    41    43    1
    45    38    44    1
    46    38    45    1
    47    36    46    1
    48    36    47    1
    49    36    48    1
    50    46    49    1
    51    46    50    1
    52    46    51    1
    53    50    52    1
    54    50    53    1
    55    50    54    1
    56    49    55    1
    57    44    56    1
    58    28    57    1
    59    29    58    1
    60    31    59    1
    61     1    41    1
    62    60    61    1
    63    61    62    2
    64    60    63    1
    65    63    64    2
    66    62    64    1
    67    63    65    1
    68    65    66    1
    69    65    67    1
    70    65    68    1
    71    66    69    1
    72    66    70    1
    73    70    71    1
    74    70    72    1
    75    70    73    1
    76    71    74    1
    77    74    75    1
    78    74    76    1
    79    71    77    1
    80    71    78    1
    81    69    79    1
    82    69    80    1
    83    69    81    1
    84    79    82    1
    85    79    83    1
    86    79    84    1
    87    83    85    1
    88    83    86    1
    89    83    87    1
    90    82    88    1
    91    77    89    1
    92    61    90    1
    93    62    91    1
    94    64    92    1
    95    19    74    1
    96    93    94    1
    97    94    95    2
    98    93    96    1
    99    96    97    2
   100    95    97    1
   101    96    98    1
   102    98    99    1
   103    98   100    1
   104    98   101    1
   105    99   102    1
   106    99   103    1
   107   103   104    1
   108   103   105    1
   109   103   106    1
   110   104   107    1
   111   107   108    1
   112   107   109    1
   113   104   110    1
   114   104   111    1
   115   102   112    1
   116   102   113    1
   117   102   114    1
   118   112   115    1
   119   112   116    1
   120   112   117    1
   121   116   118    1
   122   116   119    1
   123   116   120    1
   124   115   121    1
   125   110   122    1
   126    94   123    1
   127    95   124    1
   128    97   125    1
   129    19   107    1
