@<TRIPOS>MOLECULE
DFA+FDE+FDE+FDE
   125   129  1  0  0
SMALL
gas

@<TRIPOS>ATOM
      1 N1         93.5200   98.9400   99.3400 n3      1  DFA       -0.3248
      2 C          94.3400   99.7100  100.2900 c3      1  DFA        0.0403
      3 C1         95.8100   99.5100  100.0500 cc      1  DFA        0.0725
      4 H          94.1000   99.4100  101.3200 h1      1  DFA        0.0498
      5 H1         94.1200  100.7800  100.1900 h1      1  DFA        0.0498
      6 O          96.5800  100.5400   99.5800 os      1  DFA       -0.3174
      7 C2         96.5000   98.3400  100.3000 cd      1  DFA       -0.0319
      8 C3         97.8200   99.9500   99.5400 cc      1  DFA        0.0654
      9 C4         97.8400   98.6400   99.9500 cd      1  DFA       -0.0327
     10 C5         98.9800  100.7500   99.0000 c3      1  DFA        0.0418
     11 C6        100.3600  100.1900   99.2300 cc      1  DFA        0.0654
     12 H2         98.9300  101.7500   99.4300 hc      1  DFA        0.0409
     13 H3         98.8300  100.8900   97.9200 hc      1  DFA        0.0409
     14 C7        100.8600   99.1000   98.5600 cd      1  DFA       -0.0327
     15 C8        102.2700   99.1900   98.7200 cd      1  DFA       -0.0319
     16 O1        101.3100  100.9700   99.8300 os      1  DFA       -0.3174
     17 C9        102.4600  100.3300   99.4700 cc      1  DFA        0.0725
     18 C10       103.7600  101.0900   99.5400 c3      1  DFA        0.0403
     19 N2        104.9900  100.2600   99.5800 n3      1  DFA       -0.3248
     20 H4        103.7400  101.7600  100.4100 h1      1  DFA        0.0498
     21 H5        103.7500  101.7300   98.6500 h1      1  DFA        0.0498
     22 H7         93.8300   99.1500   98.3900 hn      1  DFA        0.1188
     23 H10        96.1000   97.4000  100.6700 ha      1  DFA        0.0648
     24 H11        98.6900   97.9600   99.9900 ha      1  DFA        0.0648
     25 H12       100.3300   98.4100   97.9200 ha      1  DFA        0.0648
     26 H13       103.0300   98.5900   98.2300 ha      1  DFA        0.0648
     27 O          86.7400  100.6200  101.9900 os      2  FDE       -0.3212
     28 C          87.1600  101.2200  103.1500 cc      2  FDE        0.0455
     29 C3         88.5300  101.2400  103.3000 cd      2  FDE       -0.0364
     30 C4         87.9300  100.2400  101.4300 cc      2  FDE        0.0725
     31 C5         89.0400  100.6000  102.1500 cd      2  FDE       -0.0322
     32 C6         87.9500   99.5800  100.0700 c3      2  FDE        0.0457
     33 N          89.1400   98.7200   99.8700 n3      2  FDE       -0.2919
     34 H          87.9400  100.3900   99.3300 h1      2  FDE        0.0503
     35 H1         87.0300   99.0100   99.9200 h1      2  FDE        0.0503
     36 C7         89.7400   98.8800   98.5200 c3      2  FDE        0.0245
     37 C8         88.9800   97.3000  100.2800 c3      2  FDE        0.0245
     38 C9         88.5500   97.0700  101.7500 c3      2  FDE        0.0639
     39 H2         89.9400   96.7800  100.1400 h1      2  FDE        0.0458
     40 H3         88.2600   96.8000   99.6200 h1      2  FDE        0.0458
     41 C1         88.9500   95.6600  102.2400 c3      2  FDE       -0.0377
     42 H4         88.4700   94.8900  101.6200 hc      2  FDE        0.0257
     43 H5         88.6500   95.5100  103.2800 hc      2  FDE        0.0257
     44 H6         90.0400   95.5300  102.1800 hc      2  FDE        0.0257
     45 O1         87.1400   97.2000  101.8800 oh      2  FDE       -0.3921
     46 H7         89.0600   97.8100  102.3900 h1      2  FDE        0.0611
     47 C10        91.2300   98.4600   98.4300 c3      2  FDE        0.0639
     48 H8         89.6800   99.9300   98.2100 h1      2  FDE        0.0458
     49 H9         89.1500   98.3000   97.7900 h1      2  FDE        0.0458
     50 O2         91.6900   98.6900   97.1000 oh      2  FDE       -0.3921
     51 C2         92.0900   99.2600   99.4500 c3      2  FDE       -0.0377
     52 H10        91.3200   97.3900   98.6600 h1      2  FDE        0.0611
     53 H11        91.9300  100.3300   99.2700 hc      2  FDE        0.0257
     54 H13        91.7400   99.0300  100.4600 hc      2  FDE        0.0257
     55 H14        91.6700   99.6500   96.9400 ho      2  FDE        0.2105
     56 H15        86.9300   97.2800  102.8300 ho      2  FDE        0.2105
     57 H16        86.3900  101.6200  103.8000 h4      2  FDE        0.0902
     58 H17        89.1000  101.6600  104.1200 ha      2  FDE        0.0645
     59 H18        90.0800  100.4300  101.8900 ha      2  FDE        0.0648
     60 O         104.9000  105.3900   95.8900 os      3  FDE       -0.3212
     61 C         105.8200  106.3800   96.1600 cc      3  FDE        0.0455
     62 C3        107.1200  105.9700   96.0300 cd      3  FDE       -0.0364
     63 C4        105.7200  104.3300   95.6000 cc      3  FDE        0.0725
     64 C5        107.0600  104.6100   95.6500 cd      3  FDE       -0.0322
     65 C6        105.1200  102.9900   95.2600 c3      3  FDE        0.0457
     66 N         106.0300  101.8400   95.4900 n3      3  FDE       -0.2919
     67 H         104.8200  103.0400   94.2000 h1      3  FDE        0.0503
     68 H1        104.1900  102.8600   95.8300 h1      3  FDE        0.0503
     69 C7        106.0600  100.9300   94.3200 c3      3  FDE        0.0245
     70 C8        105.8100  101.1500   96.7900 c3      3  FDE        0.0245
     71 C9        106.3200  101.9000   98.0600 c3      3  FDE        0.0639
     72 H2        106.3400  100.1900   96.7900 h1      3  FDE        0.0458
     73 H3        104.7500  100.9000   96.9000 h1      3  FDE        0.0458
     74 C1        106.2600  101.0200   99.3300 c3      3  FDE       -0.0377
     75 H5        106.4800  101.6500  100.2000 hc      3  FDE        0.0257
     76 H6        107.0800  100.3000   99.2400 hc      3  FDE        0.0257
     77 O1        105.6400  103.1300   98.2900 oh      3  FDE       -0.3921
     78 H7        107.3800  102.1300   97.8800 h1      3  FDE        0.0611
     79 C10       107.2900   99.9800   94.2900 c3      3  FDE        0.0639
     80 H8        106.0900  101.5200   93.4000 h1      3  FDE        0.0458
     81 H9        105.1400  100.3300   94.3000 h1      3  FDE        0.0458
     82 O2        107.2300   99.1900   93.1000 oh      3  FDE       -0.3921
     83 C2        108.6300  100.7500   94.3100 c3      3  FDE       -0.0377
     84 H10       107.2600   99.3100   95.1500 h1      3  FDE        0.0611
     85 H11       108.6800  101.4700   93.4800 hc      3  FDE        0.0257
     86 H12       109.4700  100.0500   94.2100 hc      3  FDE        0.0257
     87 H13       108.7500  101.2900   95.2500 hc      3  FDE        0.0257
     88 H14       107.3000   99.7900   92.3400 ho      3  FDE        0.2105
     89 H15       106.1300  103.6100   98.9900 ho      3  FDE        0.2105
     90 H16       105.4200  107.3400   96.4300 h4      3  FDE        0.0902
     91 H17       108.0200  106.5600   96.1900 ha      3  FDE        0.0645
     92 H18       107.8900  103.9300   95.4700 ha      3  FDE        0.0648
     93 O         103.3400   97.5700  106.2500 os      4  FDE       -0.3212
     94 C         102.0200   97.9500  106.1700 cc      4  FDE        0.0455
     95 C3        101.7000   98.5400  104.9700 cd      4  FDE       -0.0364
     96 C4        103.8200   97.9600  105.0300 cc      4  FDE        0.0725
     97 C5        102.8900   98.5400  104.2100 cd      4  FDE       -0.0322
     98 C6        105.2600   97.6800  104.6600 c3      4  FDE        0.0457
     99 N         105.7300   98.5400  103.5500 n3      4  FDE       -0.2919
    100 H         105.3100   96.6200  104.3700 h1      4  FDE        0.0503
    101 H1        105.9000   97.7900  105.5400 h1      4  FDE        0.0503
    102 C7        106.2300   97.7800  102.3800 c3      4  FDE        0.0245
    103 C8        106.5500   99.7200  103.9600 c3      4  FDE        0.0245
    104 C9        105.7800  100.7200  104.8600 c3      4  FDE        0.0639
    105 H2        106.8700  100.2600  103.0700 h1      4  FDE        0.0458
    106 H3        107.4600   99.3800  104.4800 h1      4  FDE        0.0458
    107 C1        106.3700  102.1400  104.7300 c3      4  FDE       -0.0377
    108 H4        107.4200  102.1600  105.0400 hc      4  FDE        0.0257
    109 H5        105.8100  102.8500  105.3600 hc      4  FDE        0.0257
    110 H6        106.3100  102.5000  103.7000 hc      4  FDE        0.0257
    111 O1        105.8400  100.3200  106.2300 oh      4  FDE       -0.3921
    112 H7        104.7300  100.7600  104.5200 h1      4  FDE        0.0611
    113 C10       106.3200   98.6100  101.0800 c3      4  FDE        0.0639
    114 H8        105.5400   96.9400  102.1900 h1      4  FDE        0.0458
    115 H9        107.2100   97.3500  102.6000 h1      4  FDE        0.0458
    116 O2        106.5800   97.7400   99.9800 oh      4  FDE       -0.3921
    117 C2        105.0300   99.4400  100.8200 c3      4  FDE       -0.0377
    118 H10       107.1700   99.3000  101.1800 h1      4  FDE        0.0611
    119 H11       104.1800   98.7500  100.8300 hc      4  FDE        0.0257
    120 H13       104.8900  100.1200  101.6800 hc      4  FDE        0.0257
    121 H14       105.7800   97.2000   99.8300 ho      4  FDE        0.2105
    122 H15       105.1900  100.8600  106.7200 ho      4  FDE        0.2105
    123 H16       101.4100   97.7400  107.0300 h4      4  FDE        0.0902
    124 H17       100.7300   98.9200  104.6600 ha      4  FDE        0.0645
    125 H18       103.0200   98.9100  103.2000 ha      4  FDE        0.0648
@<TRIPOS>BOND
     1     1     2    1
     2     2     3    1
     3     2     4    1
     4     2     5    1
     5     3     6    1
     6     3     7    2
     7     6     8    1
     8     8     9    2
     9     7     9    1
    10     8    10    1
    11    10    11    1
    12    10    12    1
    13    10    13    1
    14    11    14    2
    15    14    15    1
    16    11    16    1
    17    16    17    1
    18    15    17    2
    19    17    18    1
    20    18    19    1
    21    18    20    1
    22    18    21    1
    23     1    22    1
    24     7    23    1
    25     9    24    1
    26    14    25    1
    27    15    26    1
    28    27    28    1
    29    28    29    2
    30    27    30    1
    31    30    31    2
    32    29    31    1
    33    30    32    1
    34    32    33    1
    35    32    34    1
    36    32    35    1
    37    33    36    1
    38    33    37    1
    39    37    38    1
    40    37    39    1
    41    37    40    1
    42    38    41    1
    43    41    42    1
    44    41    43    1
    45    41    44    1
    46    38    45    1
    47    38    46    1
    48    36    47    1
    49    36    48    1
    50    36    49    1
    51    47    50    1
    52    47    51    1
    53    47    52    1
    54    51    53    1
    55    51    54    1
    56    50    55    1
    57    45    56    1
    58    28    57    1
    59    29    58    1
    60    31    59    1
    61     1    51    1
    62    60    61    1
    63    61    62    2
    64    60    63    1
    65    63    64    2
    66    62    64    1
    67    63    65    1
    68    65    66    1
    69    65    67    1
    70    65    68    1
    71    66    69    1
    72    66    70    1
    73    70    71    1
    74    70    72    1
    75    70    73    1
    76    71    74    1
    77    74    75    1
    78    74    76    1
    79    71    77    1
    80    71    78    1
    81    69    79    1
    82    69    80    1
    83    69    81    1
    84    79    82    1
    85    79    83    1
    86    79    84    1
    87    83    85    1
    88    83    86    1
    89    83    87    1
    90    82    88    1
    91    77    89    1
    92    61    90    1
    93    62    91    1
    94    64    92    1
    95    19    74    1
    96    93    94    1
    97    94    95    2
    98    93    96    1
    99    96    97    2
   100    95    97    1
   101    96    98    1
   102    98    99    1
   103    98   100    1
   104    98   101    1
   105    99   102    1
   106    99   103    1
   107   103   104    1
   108   103   105    1
   109   103   106    1
   110   104   107    1
   111   107   108    1
   112   107   109    1
   113   107   110    1
   114   104   111    1
   115   104   112    1
   116   102   113    1
   117   102   114    1
   118   102   115    1
   119   113   116    1
   120   113   117    1
   121   113   118    1
   122   117   119    1
   123   117   120    1
   124   116   121    1
   125   111   122    1
   126    94   123    1
   127    95   124    1
   128    97   125    1
   129    19   117    1
