@<TRIPOS>MOLECULE
DFA+FDE+FDE+FDE
   125   129  1  0  0
SMALL
gas

@<TRIPOS>ATOM
      1 N1         93.5800   98.4300   99.3100 n3      1  DFA       -0.3248
      2 C          94.4200   99.2500  100.2000 c3      1  DFA        0.0403
      3 C1         95.8900   99.0800   99.9400 cc      1  DFA        0.0725
      4 H          94.2100   98.9800  101.2500 h1      1  DFA        0.0498
      5 H1         94.1700  100.3100  100.0800 h1      1  DFA        0.0498
      6 O          96.7900   99.1800  100.9800 os      1  DFA       -0.3174
      7 C2         96.4600   98.9900   98.7000 cd      1  DFA       -0.0319
      8 C3         97.9800   99.1400  100.3000 cc      1  DFA        0.0654
      9 C4         97.8600   99.0200   98.9400 cd      1  DFA       -0.0327
     10 C5         99.2700   99.2800  101.0700 c3      1  DFA        0.0418
     11 C6        100.5200   99.1100  100.2500 cc      1  DFA        0.0654
     12 H2         99.2800   98.5700  101.9000 hc      1  DFA        0.0409
     13 H3         99.2900  100.2800  101.5400 hc      1  DFA        0.0409
     14 C7        100.9100   97.9300   99.6600 cd      1  DFA       -0.0327
     15 C8        102.1900   98.2100   99.1000 cd      1  DFA       -0.0319
     16 O1        101.4300  100.1300  100.1400 os      1  DFA       -0.3174
     17 C9        102.4400   99.5100   99.4500 cc      1  DFA        0.0725
     18 C10       103.7100  100.2600   99.1800 c3      1  DFA        0.0403
     19 N2        104.9700   99.5100   99.4600 n3      1  DFA       -0.3248
     20 H4        103.7000  101.1900   99.7700 h1      1  DFA        0.0498
     21 H5        103.6800  100.5600   98.1300 h1      1  DFA        0.0498
     22 H7         93.8300   98.6300   98.3400 hn      1  DFA        0.1188
     23 H10        95.9700   98.9400   97.7400 ha      1  DFA        0.0648
     24 H11        98.6500   99.0000   98.2000 ha      1  DFA        0.0648
     25 H12       100.3800   96.9900   99.6400 ha      1  DFA        0.0648
     26 H13       102.8400   97.5300   98.5700 ha      1  DFA        0.0648
     27 O          86.8000   99.6500  102.2800 os      2  FDE       -0.3212
     28 C          87.2200  100.3100  103.4100 cc      2  FDE        0.0455
     29 C3         88.5500  100.6200  103.4100 cd      2  FDE       -0.0364
     30 C4         87.9700   99.5500  101.5700 cc      2  FDE        0.0725
     31 C5         89.0500  100.1200  102.1800 cd      2  FDE       -0.0322
     32 C6         88.0000   98.9100  100.2000 c3      2  FDE        0.0457
     33 N          89.2300   98.1000   99.9900 n3      2  FDE       -0.2919
     34 H          87.9400   99.7200   99.4700 h1      2  FDE        0.0503
     35 H1         87.1000   98.2900  100.0600 h1      2  FDE        0.0503
     36 C7         89.7700   98.2600   98.6200 c3      2  FDE        0.0245
     37 C8         89.1600   96.6800  100.4300 c3      2  FDE        0.0245
     38 C9         88.6900   96.4600  101.9000 c3      2  FDE        0.0639
     39 H2         90.1600   96.2400  100.3400 h1      2  FDE        0.0458
     40 H3         88.5000   96.1100   99.7700 h1      2  FDE        0.0458
     41 C1         89.2100   95.1200  102.4500 c3      2  FDE       -0.0377
     42 H4         88.8600   94.2800  101.8500 hc      2  FDE        0.0257
     43 H5         88.8700   94.9700  103.4900 hc      2  FDE        0.0257
     44 H6         90.3100   95.1000  102.4600 hc      2  FDE        0.0257
     45 O1         87.2600   96.4400  101.9600 oh      2  FDE       -0.3921
     46 H7         89.0800   97.2600  102.5200 h1      2  FDE        0.0611
     47 C10        91.2700   97.8800   98.4900 c3      2  FDE        0.0639
     48 H8         89.6800   99.3100   98.3100 h1      2  FDE        0.0458
     49 H9         89.1800   97.6600   97.9100 h1      2  FDE        0.0458
     50 O2         91.6900   98.1300   97.1500 oh      2  FDE       -0.3921
     51 C2         92.1400   98.6900   99.4800 c3      2  FDE       -0.0377
     52 H10        91.4000   96.8100   98.7000 h1      2  FDE        0.0611
     53 H11        91.9400   99.7600   99.3300 hc      2  FDE        0.0257
     54 H13        91.8500   98.4300  100.5100 hc      2  FDE        0.0257
     55 H14        91.6100   99.0900   96.9900 ho      2  FDE        0.2105
     56 H15        87.0000   96.6700  102.8600 ho      2  FDE        0.2105
     57 H16        86.4600  100.5100  104.1500 h4      2  FDE        0.0902
     58 H17        89.1100  101.1400  104.1800 ha      2  FDE        0.0645
     59 H18        90.0700  100.1800  101.8100 ha      2  FDE        0.0648
     60 O         105.1400  104.5600   95.5000 os      3  FDE       -0.3212
     61 C         106.0600  105.5400   95.7800 cc      3  FDE        0.0455
     62 C3        107.3600  105.1000   95.7400 cd      3  FDE       -0.0364
     63 C4        105.9400  103.4700   95.3100 cc      3  FDE        0.0725
     64 C5        107.2900  103.7200   95.4300 cd      3  FDE       -0.0322
     65 C6        105.3300  102.1200   94.9900 c3      3  FDE        0.0457
     66 N         106.2500  100.9800   95.2600 n3      3  FDE       -0.2919
     67 H         105.0300  102.1400   93.9400 h1      3  FDE        0.0503
     68 H1        104.4100  102.0100   95.5700 h1      3  FDE        0.0503
     69 C7        106.4200  100.1200   94.0700 c3      3  FDE        0.0245
     70 C8        105.9700  100.2500   96.5200 c3      3  FDE        0.0245
     71 C9        106.3400  101.0300   97.8200 c3      3  FDE        0.0639
     72 H2        106.5500   99.3200   96.5500 h1      3  FDE        0.0458
     73 H3        104.9100   99.9500   96.5500 h1      3  FDE        0.0458
     74 C1        106.2700  100.1500   99.1000 c3      3  FDE       -0.0377
     75 H5        106.6200  100.7800   99.9200 hc      3  FDE        0.0257
     76 H6        107.0200   99.3500   98.9900 hc      3  FDE        0.0257
     77 O1        105.5800  102.2200   98.0100 oh      3  FDE       -0.3921
     78 H7        107.3900  101.3200   97.7000 h1      3  FDE        0.0611
     79 C10       107.7000   99.2400   94.1000 c3      3  FDE        0.0639
     80 H8        106.5000  100.7500   93.1700 h1      3  FDE        0.0458
     81 H9        105.5400   99.4800   93.9400 h1      3  FDE        0.0458
     82 O2        107.7800   98.4900   92.8900 oh      3  FDE       -0.3921
     83 C2        108.9900  100.0700   94.2700 c3      3  FDE       -0.0377
     84 H10       107.6300   98.5300   94.9400 h1      3  FDE        0.0611
     85 H11       109.0600  100.8400   93.4900 hc      3  FDE        0.0257
     86 H12       109.8700   99.4300   94.2100 hc      3  FDE        0.0257
     87 H13       109.0000  100.5700   95.2500 hc      3  FDE        0.0257
     88 H14       107.8800   99.1300   92.1600 ho      3  FDE        0.2105
     89 H15       106.0000  102.7300   98.7200 ho      3  FDE        0.2105
     90 H16       105.6600  106.5200   95.9800 h4      3  FDE        0.0902
     91 H17       108.2500  105.6800   95.9300 ha      3  FDE        0.0645
     92 H18       108.1100  103.0300   95.3200 ha      3  FDE        0.0648
     93 O         101.3300  101.8800  103.8100 os      4  FDE       -0.3212
     94 C         100.7000  101.1200  104.7600 cc      4  FDE        0.0455
     95 C3        101.5700  100.5500  105.6700 cd      4  FDE       -0.0364
     96 C4        102.6400  101.7400  104.1600 cc      4  FDE        0.0725
     97 C5        102.8600  100.9600  105.2700 cd      4  FDE       -0.0322
     98 C6        103.7200  102.4100  103.3500 c3      4  FDE        0.0457
     99 N         105.0400  101.7300  103.4000 n3      4  FDE       -0.2919
    100 H         103.8000  103.4400  103.7100 h1      4  FDE        0.0503
    101 H1        103.3700  102.4900  102.3100 h1      4  FDE        0.0503
    102 C7        106.1100  102.6500  103.8300 c3      4  FDE        0.0245
    103 C8        105.3500  100.9500  102.1700 c3      4  FDE        0.0245
    104 C9        104.7200   99.5400  102.0800 c3      4  FDE        0.0639
    105 H2        106.4300  100.7900  102.1100 h1      4  FDE        0.0458
    106 H3        105.0800  101.5500  101.3000 h1      4  FDE        0.0458
    107 C1        105.0400   98.7600  100.7600 c3      4  FDE       -0.0377
    108 H5        104.3600   97.9000  100.7100 hc      4  FDE        0.0257
    109 H6        106.0500   98.3300  100.8600 hc      4  FDE        0.0257
    110 O1        103.3200   99.5200  102.3100 oh      4  FDE       -0.3921
    111 H7        105.1700   98.9500  102.8900 h1      4  FDE        0.0611
    112 C10       107.4100  101.9500  104.3200 c3      4  FDE        0.0639
    113 H8        105.7500  103.2700  104.6600 h1      4  FDE        0.0458
    114 H9        106.3600  103.3300  103.0000 h1      4  FDE        0.0458
    115 O2        108.3700  102.9400  104.6800 oh      4  FDE       -0.3921
    116 C2        107.1500  101.0200  105.5200 c3      4  FDE       -0.0377
    117 H10       107.8300  101.3500  103.5000 h1      4  FDE        0.0611
    118 H11       106.7000  101.5700  106.3500 hc      4  FDE        0.0257
    119 H12       108.0900  100.5800  105.8800 hc      4  FDE        0.0257
    120 H13       106.4800  100.2000  105.2500 hc      4  FDE        0.0257
    121 H14       108.0000  103.4400  105.4300 ho      4  FDE        0.2105
    122 H15       102.8700  100.0100  101.5900 ho      4  FDE        0.2105
    123 H16        99.6300  101.0500  104.6900 h4      4  FDE        0.0902
    124 H17       101.3200   99.9000  106.5000 ha      4  FDE        0.0645
    125 H18       103.8100  100.7100  105.7300 ha      4  FDE        0.0648
@<TRIPOS>BOND
     1     1     2    1
     2     2     3    1
     3     2     4    1
     4     2     5    1
     5     3     6    1
     6     3     7    2
     7     6     8    1
     8     8     9    2
     9     7     9    1
    10     8    10    1
    11    10    11    1
    12    10    12    1
    13    10    13    1
    14    11    14    2
    15    14    15    1
    16    11    16    1
    17    16    17    1
    18    15    17    2
    19    17    18    1
    20    18    19    1
    21    18    20    1
    22    18    21    1
    23     1    22    1
    24     7    23    1
    25     9    24    1
    26    14    25    1
    27    15    26    1
    28    27    28    1
    29    28    29    2
    30    27    30    1
    31    30    31    2
    32    29    31    1
    33    30    32    1
    34    32    33    1
    35    32    34    1
    36    32    35    1
    37    33    36    1
    38    33    37    1
    39    37    38    1
    40    37    39    1
    41    37    40    1
    42    38    41    1
    43    41    42    1
    44    41    43    1
    45    41    44    1
    46    38    45    1
    47    38    46    1
    48    36    47    1
    49    36    48    1
    50    36    49    1
    51    47    50    1
    52    47    51    1
    53    47    52    1
    54    51    53    1
    55    51    54    1
    56    50    55    1
    57    45    56    1
    58    28    57    1
    59    29    58    1
    60    31    59    1
    61     1    51    1
    62    60    61    1
    63    61    62    2
    64    60    63    1
    65    63    64    2
    66    62    64    1
    67    63    65    1
    68    65    66    1
    69    65    67    1
    70    65    68    1
    71    66    69    1
    72    66    70    1
    73    70    71    1
    74    70    72    1
    75    70    73    1
    76    71    74    1
    77    74    75    1
    78    74    76    1
    79    71    77    1
    80    71    78    1
    81    69    79    1
    82    69    80    1
    83    69    81    1
    84    79    82    1
    85    79    83    1
    86    79    84    1
    87    83    85    1
    88    83    86    1
    89    83    87    1
    90    82    88    1
    91    77    89    1
    92    61    90    1
    93    62    91    1
    94    64    92    1
    95    19    74    1
    96    93    94    1
    97    94    95    2
    98    93    96    1
    99    96    97    2
   100    95    97    1
   101    96    98    1
   102    98    99    1
   103    98   100    1
   104    98   101    1
   105    99   102    1
   106    99   103    1
   107   103   104    1
   108   103   105    1
   109   103   106    1
   110   104   107    1
   111   107   108    1
   112   107   109    1
   113   104   110    1
   114   104   111    1
   115   102   112    1
   116   102   113    1
   117   102   114    1
   118   112   115    1
   119   112   116    1
   120   112   117    1
   121   116   118    1
   122   116   119    1
   123   116   120    1
   124   115   121    1
   125   110   122    1
   126    94   123    1
   127    95   124    1
   128    97   125    1
   129    19   107    1
