@<TRIPOS>MOLECULE
DFA+FDE
    61    63  1  0  0
SMALL
gas

@<TRIPOS>ATOM
      1 N1         89.2600   98.2900  100.8800 n3      1  DFA       -0.3248
      2 C          89.8600   99.6200  100.9900 c3      1  DFA        0.0403
      3 C1         91.3300   99.6300  100.6300 cc      1  DFA        0.0725
      4 H          89.7500   99.9900  102.0200 h1      1  DFA        0.0498
      5 H1         89.3400  100.3200  100.3300 h1      1  DFA        0.0498
      6 O          92.1600  100.5600  101.1900 os      1  DFA       -0.3174
      7 C2         91.9200   98.8200   99.7000 cd      1  DFA       -0.0319
      8 C3         93.3400  100.2800  100.5600 cc      1  DFA        0.0654
      9 C4         93.2700   99.2500   99.6500 cd      1  DFA       -0.0327
     10 C5         94.5600  101.1400  100.8000 c3      1  DFA        0.0418
     11 C6         95.8700  100.4000  100.7600 cc      1  DFA        0.0654
     12 H2         94.4600  101.6300  101.7800 hc      1  DFA        0.0409
     13 H3         94.5700  101.9500  100.0600 hc      1  DFA        0.0409
     14 C7         96.1100   99.1900  101.3600 cd      1  DFA       -0.0327
     15 C8         97.4900   98.9400  101.1300 cd      1  DFA       -0.0319
     16 O1         96.9600  100.9700  100.1600 os      1  DFA       -0.3174
     17 C9         97.9300  100.0400  100.4200 cc      1  DFA        0.0725
     18 C10        99.3500  100.2900  100.0000 c3      1  DFA        0.0403
     19 N2        100.3200   99.8100  101.0000 n3      1  DFA       -0.3248
     20 H4         99.4700  101.3700   99.8600 h1      1  DFA        0.0498
     21 H5         99.5400   99.8100   99.0400 h1      1  DFA        0.0498
     22 H6         88.2700   98.3500  101.1100 hn      1  DFA        0.1188
     23 H7         89.3100   97.9700   99.9100 hn      1  DFA        0.1188
     24 H8        100.0400  100.1400  101.9300 hn      1  DFA        0.1188
     25 H10        91.4700   98.0300   99.1100 ha      1  DFA        0.0648
     26 H11        94.0600   98.8700   99.0100 ha      1  DFA        0.0648
     27 H12        95.4200   98.5700  101.9200 ha      1  DFA        0.0648
     28 H13        98.0700   98.0900  101.4700 ha      1  DFA        0.0648
     29 O         106.9000  102.3400   98.1400 os      2  FDE       -0.3212
     30 C         106.4300  102.8300   96.9500 cc      2  FDE        0.0455
     31 C3        105.0700  102.7400   96.8000 cd      2  FDE       -0.0364
     32 C4        105.7400  101.9100   98.7300 cc      2  FDE        0.0725
     33 C5        104.6100  102.1300   97.9900 cd      2  FDE       -0.0322
     34 C6        105.7600  101.3300  100.1200 c3      2  FDE        0.0457
     35 N         104.6900  100.3200  100.3400 n3      2  FDE       -0.2919
     36 H         105.6200  102.1800  100.8100 h1      2  FDE        0.0503
     37 H1        106.7400  100.9100  100.3400 h1      2  FDE        0.0503
     38 C7        104.0800  100.4400  101.6900 c3      2  FDE        0.0245
     39 C8        105.0600   98.9200   99.9900 c3      2  FDE        0.0245
     40 C9        105.6200   98.7100   98.5600 c3      2  FDE        0.0639
     41 H2        104.1700   98.2900  100.0900 h1      2  FDE        0.0458
     42 H3        105.7900   98.5400  100.7100 h1      2  FDE        0.0458
     43 C1        105.4200   97.2500   98.0900 c3      2  FDE       -0.0377
     44 H4        105.9300   96.5500   98.7600 hc      2  FDE        0.0257
     45 H5        105.8100   97.1100   97.0800 hc      2  FDE        0.0257
     46 H6        104.3500   96.9900   98.0700 hc      2  FDE        0.0257
     47 O1        107.0100   99.0000   98.5200 oh      2  FDE       -0.3921
     48 H7        105.0700   99.3600   97.8600 h1      2  FDE        0.0611
     49 C10       102.6900   99.7600  101.8200 c3      2  FDE        0.0639
     50 H8        103.9400  101.5000  101.9300 h1      2  FDE        0.0458
     51 H9        104.7600  100.0300  102.4400 h1      2  FDE        0.0458
     52 O2        102.1900  100.0100  103.1400 oh      2  FDE       -0.3921
     53 C2        101.7000  100.2800  100.7600 c3      2  FDE       -0.0377
     54 H10       102.8000   98.6800  101.7000 h1      2  FDE        0.0611
     55 H11       101.7200  101.3800  100.7600 hc      2  FDE        0.0257
     56 H13       102.0300   99.9400   99.7600 hc      2  FDE        0.0257
     57 H14       102.0300  100.9700  103.2100 ho      2  FDE        0.2105
     58 H15       107.2700   99.1200   97.5900 ho      2  FDE        0.2105
     59 H16       107.1800  103.2400   96.2800 h4      2  FDE        0.0902
     60 H17       104.4800  103.0700   95.9600 ha      2  FDE        0.0645
     61 H18       103.5800  101.9000   98.2600 ha      2  FDE        0.0648
@<TRIPOS>BOND
     1     1     2    1
     2     2     3    1
     3     2     4    1
     4     2     5    1
     5     3     6    1
     6     3     7    2
     7     6     8    1
     8     8     9    2
     9     7     9    1
    10     8    10    1
    11    10    11    1
    12    10    12    1
    13    10    13    1
    14    11    14    2
    15    14    15    1
    16    11    16    1
    17    16    17    1
    18    15    17    2
    19    17    18    1
    20    18    19    1
    21    18    20    1
    22    18    21    1
    23     1    22    1
    24     1    23    1
    25    19    24    1
    26     7    25    1
    27     9    26    1
    28    14    27    1
    29    15    28    1
    30    29    30    1
    31    30    31    2
    32    29    32    1
    33    32    33    2
    34    31    33    1
    35    32    34    1
    36    34    35    1
    37    34    36    1
    38    34    37    1
    39    35    38    1
    40    35    39    1
    41    39    40    1
    42    39    41    1
    43    39    42    1
    44    40    43    1
    45    43    44    1
    46    43    45    1
    47    43    46    1
    48    40    47    1
    49    40    48    1
    50    38    49    1
    51    38    50    1
    52    38    51    1
    53    49    52    1
    54    49    53    1
    55    49    54    1
    56    53    55    1
    57    53    56    1
    58    52    57    1
    59    47    58    1
    60    30    59    1
    61    31    60    1
    62    33    61    1
    63    19    53    1
