@<TRIPOS>MOLECULE
DFA+FDE+FDE
    93    96  1  0  0
SMALL
gas

@<TRIPOS>ATOM
      1 N1         89.9000   97.6300  100.1000 n3      1  DFA       -0.3248
      2 C          90.7100   98.8500  100.0600 c3      1  DFA        0.0403
      3 C1         92.1800   98.5400   99.9500 cc      1  DFA        0.0725
      4 H          90.5400   99.4300  100.9800 h1      1  DFA        0.0498
      5 H1         90.4100   99.4700   99.2100 h1      1  DFA        0.0498
      6 O          93.0300   98.7800  100.9900 os      1  DFA       -0.3174
      7 C2         92.7700   98.0200   98.8200 cd      1  DFA       -0.0319
      8 C3         94.2200   98.3700  100.4500 cc      1  DFA        0.0654
      9 C4         94.1400   97.9000   99.1600 cd      1  DFA       -0.0327
     10 C5         95.4800   98.4100  101.3000 c3      1  DFA        0.0418
     11 C6         96.7700   98.2800  100.5300 cc      1  DFA        0.0654
     12 H2         95.4300   97.6200  102.0500 hc      1  DFA        0.0409
     13 H3         95.4900   99.3600  101.8600 hc      1  DFA        0.0409
     14 C7         97.2400   97.1100   99.9900 cd      1  DFA       -0.0327
     15 C8         98.5100   97.4500   99.4600 cd      1  DFA       -0.0319
     16 O1         97.6200   99.3500  100.4200 os      1  DFA       -0.3174
     17 C9         98.6800   98.7700   99.7800 cc      1  DFA        0.0725
     18 C10        99.9200   99.5800   99.5200 c3      1  DFA        0.0403
     19 N2        101.2100   98.8800   99.8100 n3      1  DFA       -0.3248
     20 H4         99.8600  100.5000  100.1200 h1      1  DFA        0.0498
     21 H5         99.8800   99.8800   98.4700 h1      1  DFA        0.0498
     22 H6         88.9100   97.8800  100.1500 hn      1  DFA        0.1188
     23 H7         90.0300   97.1100   99.2300 hn      1  DFA        0.1188
     24 H10        92.3000   97.7500   97.8900 ha      1  DFA        0.0648
     25 H11        94.9300   97.5200   98.5300 ha      1  DFA        0.0648
     26 H12        96.7600   96.1400   99.9900 ha      1  DFA        0.0648
     27 H13        99.2200   96.7800   98.9800 ha      1  DFA        0.0648
     28 O         101.4600  103.9700   95.9300 os      2  FDE       -0.3212
     29 C         102.3900  104.9200   96.2700 cc      2  FDE        0.0455
     30 C3        103.6800  104.4600   96.2500 cd      2  FDE       -0.0364
     31 C4        102.2500  102.8700   95.7000 cc      2  FDE        0.0725
     32 C5        103.6000  103.1000   95.8600 cd      2  FDE       -0.0322
     33 C6        101.6300  101.5600   95.3100 c3      2  FDE        0.0457
     34 N         102.5000  100.3800   95.5900 n3      2  FDE       -0.2919
     35 H         101.4100  101.6200   94.2400 h1      2  FDE        0.0503
     36 H1        100.6700  101.4500   95.8200 h1      2  FDE        0.0503
     37 C7        102.6500   99.5000   94.4100 c3      2  FDE        0.0245
     38 C8        102.1700   99.6700   96.8600 c3      2  FDE        0.0245
     39 C9        102.5200  100.4500   98.1500 c3      2  FDE        0.0639
     40 H2        102.7500   98.7300   96.9000 h1      2  FDE        0.0458
     41 H3        101.1200   99.3800   96.8500 h1      2  FDE        0.0458
     42 C1        102.4900   99.5700   99.4300 c3      2  FDE       -0.0377
     43 H5        102.8200  100.2100  100.2500 hc      2  FDE        0.0257
     44 H6        103.2600   98.8000   99.3200 hc      2  FDE        0.0257
     45 O1        101.7000  101.6100   98.3400 oh      2  FDE       -0.3921
     46 H7        103.5600  100.7900   98.0400 h1      2  FDE        0.0611
     47 C10       103.9000   98.5900   94.4600 c3      2  FDE        0.0639
     48 H8        102.7600  100.1300   93.5100 h1      2  FDE        0.0458
     49 H9        101.7500   98.8900   94.2800 h1      2  FDE        0.0458
     50 O2        103.9700   97.8300   93.2600 oh      2  FDE       -0.3921
     51 C2        105.2100   99.3800   94.6400 c3      2  FDE       -0.0377
     52 H10       103.8000   97.8900   95.3000 h1      2  FDE        0.0611
     53 H11       105.3200  100.1400   93.8500 hc      2  FDE        0.0257
     54 H12       106.0800   98.7100   94.5900 hc      2  FDE        0.0257
     55 H13       105.2400   99.8900   95.6100 hc      2  FDE        0.0257
     56 H14       104.1000   98.4600   92.5200 ho      2  FDE        0.2105
     57 H15       102.1000  102.1500   99.0500 ho      2  FDE        0.2105
     58 H16       102.0000  105.9000   96.5200 h4      2  FDE        0.0902
     59 H17       104.5800  105.0200   96.4700 ha      2  FDE        0.0645
     60 H18       104.4100  102.4000   95.7300 ha      2  FDE        0.0648
     61 O          97.6100  101.2700  104.1900 os      3  FDE       -0.3212
     62 C          96.9900  100.4600  105.1100 cc      3  FDE        0.0455
     63 C3         97.8500   99.8500  105.9800 cd      3  FDE       -0.0364
     64 C4         98.9300  101.1100  104.5300 cc      3  FDE        0.0725
     65 C5         99.1500  100.2800  105.6000 cd      3  FDE       -0.0322
     66 C6        100.0000  101.8300  103.7600 c3      3  FDE        0.0457
     67 N         101.3200  101.1300  103.7600 n3      3  FDE       -0.2919
     68 H         100.1000  102.8200  104.2100 h1      3  FDE        0.0503
     69 H1         99.6500  101.9900  102.7300 h1      3  FDE        0.0503
     70 C7        102.4200  102.0400  104.1400 c3      3  FDE        0.0245
     71 C8        101.5800  100.3700  102.5000 c3      3  FDE        0.0245
     72 C9        100.9600   98.9500  102.4200 c3      3  FDE        0.0639
     73 H2        102.6600  100.2200  102.3900 h1      3  FDE        0.0458
     74 H3        101.2700  100.9700  101.6500 h1      3  FDE        0.0458
     75 C1        101.3100   98.1600  101.1200 c3      3  FDE       -0.0377
     76 H5        100.6700   97.2800  101.0800 hc      3  FDE        0.0257
     77 H6        102.3300   97.7700  101.2200 hc      3  FDE        0.0257
     78 O1         99.5600   98.9300  102.6400 oh      3  FDE       -0.3921
     79 H7        101.4000   98.3700  103.2500 h1      3  FDE        0.0611
     80 C10       103.7200  101.3200  104.5800 c3      3  FDE        0.0639
     81 H8        102.0900  102.6600  104.9900 h1      3  FDE        0.0458
     82 H9        102.6400  102.7200  103.3100 h1      3  FDE        0.0458
     83 O2        104.7000  102.3000  104.9100 oh      3  FDE       -0.3921
     84 C2        103.5000  100.3900  105.7900 c3      3  FDE       -0.0377
     85 H10       104.1100  100.7200  103.7500 h1      3  FDE        0.0611
     86 H11       103.0800  100.9500  106.6400 hc      3  FDE        0.0257
     87 H12       104.4500   99.9400  106.1100 hc      3  FDE        0.0257
     88 H13       102.8100   99.5800  105.5400 hc      3  FDE        0.0257
     89 H14       104.3700  102.8000  105.6800 ho      3  FDE        0.2105
     90 H15        99.1200   99.3900  101.8900 ho      3  FDE        0.2105
     91 H16        95.9100  100.4100  105.0400 h4      3  FDE        0.0902
     92 H17        97.6000   99.1700  106.7900 ha      3  FDE        0.0645
     93 H18       100.0900  100.0100  106.0500 ha      3  FDE        0.0648
@<TRIPOS>BOND
     1     1     2    1
     2     2     3    1
     3     2     4    1
     4     2     5    1
     5     3     6    1
     6     3     7    2
     7     6     8    1
     8     8     9    2
     9     7     9    1
    10     8    10    1
    11    10    11    1
    12    10    12    1
    13    10    13    1
    14    11    14    2
    15    14    15    1
    16    11    16    1
    17    16    17    1
    18    15    17    2
    19    17    18    1
    20    18    19    1
    21    18    20    1
    22    18    21    1
    23     1    22    1
    24     1    23    1
    25     7    24    1
    26     9    25    1
    27    14    26    1
    28    15    27    1
    29    28    29    1
    30    29    30    2
    31    28    31    1
    32    31    32    2
    33    30    32    1
    34    31    33    1
    35    33    34    1
    36    33    35    1
    37    33    36    1
    38    34    37    1
    39    34    38    1
    40    38    39    1
    41    38    40    1
    42    38    41    1
    43    39    42    1
    44    42    43    1
    45    42    44    1
    46    39    45    1
    47    39    46    1
    48    37    47    1
    49    37    48    1
    50    37    49    1
    51    47    50    1
    52    47    51    1
    53    47    52    1
    54    51    53    1
    55    51    54    1
    56    51    55    1
    57    50    56    1
    58    45    57    1
    59    29    58    1
    60    30    59    1
    61    32    60    1
    62    19    42    1
    63    61    62    1
    64    62    63    2
    65    61    64    1
    66    64    65    2
    67    63    65    1
    68    64    66    1
    69    66    67    1
    70    66    68    1
    71    66    69    1
    72    67    70    1
    73    67    71    1
    74    71    72    1
    75    71    73    1
    76    71    74    1
    77    72    75    1
    78    75    76    1
    79    75    77    1
    80    72    78    1
    81    72    79    1
    82    70    80    1
    83    70    81    1
    84    70    82    1
    85    80    83    1
    86    80    84    1
    87    80    85    1
    88    84    86    1
    89    84    87    1
    90    84    88    1
    91    83    89    1
    92    78    90    1
    93    62    91    1
    94    63    92    1
    95    65    93    1
    96    19    75    1
