@<TRIPOS>MOLECULE
DFA+FDE+FDE+FDE
   125   129  1  0  0
SMALL
gas

@<TRIPOS>ATOM
      1 N1         95.6900   99.7500   98.9000 n3      1  DFA       -0.3248
      2 C          96.4600  100.8000   98.2000 c3      1  DFA        0.0403
      3 C1         97.9500  100.7200   98.3900 cc      1  DFA        0.0725
      4 H          96.1500  101.7800   98.5800 h1      1  DFA        0.0498
      5 H1         96.2300  100.7900   97.1300 h1      1  DFA        0.0498
      6 O          98.5500  101.3600   99.4400 os      1  DFA       -0.3174
      7 C2         98.8200  100.2100   97.4500 cd      1  DFA       -0.0319
      8 C3         99.8800  101.2200   99.1100 cc      1  DFA        0.0654
      9 C4        100.1100  100.5400   97.9400 cd      1  DFA       -0.0327
     10 C5        100.9300  101.9200   99.9300 c3      1  DFA        0.0418
     11 C6        102.3100  101.3100   99.8100 cc      1  DFA        0.0654
     12 H2        100.6300  101.9300  100.9800 hc      1  DFA        0.0409
     13 H3        100.9800  102.9700   99.6200 hc      1  DFA        0.0409
     14 C7        102.6400  100.0600  100.2700 cd      1  DFA       -0.0327
     15 C8        104.0300   99.9400  100.0100 cd      1  DFA       -0.0319
     16 O1        103.3500  102.0200   99.2800 os      1  DFA       -0.3174
     17 C9        104.3800  101.1300   99.4400 cc      1  DFA        0.0725
     18 C10       105.7800  101.5100   99.0100 c3      1  DFA        0.0403
     19 N2        106.8000  100.9700   99.9200 n3      1  DFA       -0.3248
     20 H4        105.8400  102.6100   99.0100 h1      1  DFA        0.0498
     21 H5        105.9500  101.1600   97.9900 h1      1  DFA        0.0498
     22 H8        106.5600  101.2100  100.8800 hn      1  DFA        0.1188
     23 H10        98.5700   99.7200   96.5200 ha      1  DFA        0.0648
     24 H11       101.0600  100.3500   97.4500 ha      1  DFA        0.0648
     25 H12       101.9900   99.3300  100.7500 ha      1  DFA        0.0648
     26 H13       104.6700   99.1000  100.2500 ha      1  DFA        0.0648
     27 O          89.1200  101.2800  102.5300 os      2  FDE       -0.3212
     28 C          89.6100  101.6800  103.7500 cc      2  FDE        0.0455
     29 C3         90.9700  101.8800  103.7600 cd      2  FDE       -0.0364
     30 C4         90.2600  101.2200  101.7800 cc      2  FDE        0.0725
     31 C5         91.4100  101.5700  102.4400 cd      2  FDE       -0.0322
     32 C6         90.2000  100.8900  100.3100 c3      2  FDE        0.0457
     33 N          91.3700  100.1100   99.8300 n3      2  FDE       -0.2919
     34 H          90.1500  101.8500   99.7800 h1      2  FDE        0.0503
     35 H1         89.2600  100.3600  100.0800 h1      2  FDE        0.0503
     36 C7         91.8700  100.6000   98.5300 c3      2  FDE        0.0245
     37 C8         91.2100   98.6300   99.9100 c3      2  FDE        0.0245
     38 C9         90.8400   98.0800  101.3100 c3      2  FDE        0.0639
     39 H2         92.1500   98.1500   99.6200 h1      2  FDE        0.0458
     40 H3         90.4500   98.3000   99.1900 h1      2  FDE        0.0458
     41 C1         91.3400   96.6400  101.5100 c3      2  FDE       -0.0377
     42 H4         90.8900   95.9600  100.7700 hc      2  FDE        0.0257
     43 H5         91.0900   96.2700  102.5100 hc      2  FDE        0.0257
     44 H6         92.4300   96.5800  101.4000 hc      2  FDE        0.0257
     45 O1         89.4200   98.0900  101.4900 oh      2  FDE       -0.3921
     46 H7         91.3200   98.7100  102.0800 h1      2  FDE        0.0611
     47 C10        93.2500  100.0400   98.1000 c3      2  FDE        0.0639
     48 H8         91.9600  101.6900   98.5800 h1      2  FDE        0.0458
     49 H9         91.1300  100.3700   97.7400 h1      2  FDE        0.0458
     50 O2         93.6700  100.7500   96.9300 oh      2  FDE       -0.3921
     51 C2         94.3000  100.1500   99.2400 c3      2  FDE       -0.0377
     52 H10        93.1200   98.9900   97.8300 h1      2  FDE        0.0611
     53 H11        94.3000  101.1700   99.6400 hc      2  FDE        0.0257
     54 H13        93.9600   99.5000  100.0500 hc      2  FDE        0.0257
     55 H14        93.7900  101.6800   97.1800 ho      2  FDE        0.2105
     56 H15        89.2400   97.9700  102.4400 ho      2  FDE        0.2105
     57 H16        88.8800  101.8100  104.5400 h4      2  FDE        0.0902
     58 H17        91.5800  102.2000  104.5900 ha      2  FDE        0.0645
     59 H18        92.4200  101.6300  102.0500 ha      2  FDE        0.0648
     60 O          94.4700   96.7800  104.5000 os      3  FDE       -0.3212
     61 C          93.5200   97.6400  104.9900 cc      3  FDE        0.0455
     62 C3         93.2500   98.6900  104.1600 cd      3  FDE       -0.0364
     63 C4         94.8000   97.3700  103.3100 cc      3  FDE        0.0725
     64 C5         94.0800   98.5100  103.0300 cd      3  FDE       -0.0322
     65 C6         95.7800   96.7000  102.3800 c3      3  FDE        0.0457
     66 N          96.3500   97.5600  101.3100 n3      3  FDE       -0.2919
     67 H          95.2300   95.8700  101.9200 h1      3  FDE        0.0503
     68 H1         96.5900   96.2500  102.9700 h1      3  FDE        0.0503
     69 C7         96.6300   96.7500  100.1000 c3      3  FDE        0.0245
     70 C8         97.5300   98.3900  101.7100 c3      3  FDE        0.0245
     71 C9         97.3900   99.2600  102.9800 c3      3  FDE        0.0639
     72 H2         97.7600   99.0700  100.8900 h1      3  FDE        0.0458
     73 H3         98.4100   97.7300  101.8300 h1      3  FDE        0.0458
     74 C1         98.4400  100.3900  102.9900 c3      3  FDE       -0.0377
     75 H4         99.4600   99.9900  102.9100 hc      3  FDE        0.0257
     76 H5         98.3700  100.9800  103.9100 hc      3  FDE        0.0257
     77 H6         98.2800  101.0700  102.1400 hc      3  FDE        0.0257
     78 O1         97.5900   98.4600  104.1500 oh      3  FDE       -0.3921
     79 H7         96.4000   99.7200  103.0000 h1      3  FDE        0.0611
     80 C10        96.9800   97.5500   98.8100 c3      3  FDE        0.0639
     81 H8         95.7500   96.1400   99.8600 h1      3  FDE        0.0458
     82 H9         97.4600   96.0600  100.3100 h1      3  FDE        0.0458
     83 O2         97.3500   96.6200   97.8000 oh      3  FDE       -0.3921
     84 C2         95.7800   98.3900   98.3000 c3      3  FDE       -0.0377
     85 H10        97.8400   98.2000   99.0000 h1      3  FDE        0.0611
     86 H11        94.8800   97.8200   98.5300 hc      3  FDE        0.0257
     87 H12        95.8300   98.4800   97.2100 hc      3  FDE        0.0257
     88 H14        97.6300   97.1300   97.0200 ho      3  FDE        0.2105
     89 H15        97.3300   99.0000  104.9200 ho      3  FDE        0.2105
     90 H16        93.1100   97.3800  105.9600 h4      3  FDE        0.0902
     91 H17        92.5400   99.4900  104.3300 ha      3  FDE        0.0645
     92 H18        94.1400   99.1400  102.1600 ha      3  FDE        0.0648
     93 O         113.4400  103.2600   96.8400 os      4  FDE       -0.3212
     94 C         112.9900  103.7700   95.6400 cc      4  FDE        0.0455
     95 C3        111.6200  103.7500   95.5200 cd      4  FDE       -0.0364
     96 C4        112.2700  102.9200   97.4500 cc      4  FDE        0.0725
     97 C5        111.1400  103.1900   96.7300 cd      4  FDE       -0.0322
     98 C6        112.2700  102.3600   98.8500 c3      4  FDE        0.0457
     99 N         111.1800  101.3800   99.0900 n3      4  FDE       -0.2919
    100 H         112.1600  103.2200   99.5300 h1      4  FDE        0.0503
    101 H1        113.2400  101.9100   99.0800 h1      4  FDE        0.0503
    102 C7        110.6000  101.5200  100.4500 c3      4  FDE        0.0245
    103 C8        111.4900   99.9700   98.7300 c3      4  FDE        0.0245
    104 C9        112.0500   99.7300   97.3000 c3      4  FDE        0.0639
    105 H2        110.5700   99.3700   98.8200 h1      4  FDE        0.0458
    106 H3        112.2100   99.5600   99.4600 h1      4  FDE        0.0458
    107 C1        111.8000   98.2900   96.8400 c3      4  FDE       -0.0377
    108 H4        112.2800   97.5700   97.5100 hc      4  FDE        0.0257
    109 H5        112.2000   98.1300   95.8300 hc      4  FDE        0.0257
    110 H6        110.7200   98.0700   96.8100 hc      4  FDE        0.0257
    111 O1        113.4600   99.9700   97.2800 oh      4  FDE       -0.3921
    112 H7        111.5400  100.4100   96.6100 h1      4  FDE        0.0611
    113 C10       109.2000  100.8700  100.6300 c3      4  FDE        0.0639
    114 H8        110.4900  102.5800  100.6900 h1      4  FDE        0.0458
    115 H9        111.2900  101.0900  101.1900 h1      4  FDE        0.0458
    116 O2        108.7800  101.0800  101.9800 oh      4  FDE       -0.3921
    117 C2        108.1600  101.4500   99.6400 c3      4  FDE       -0.0377
    118 H10       109.2800   99.7900  100.4600 h1      4  FDE        0.0611
    119 H11       108.1800  102.5500   99.7100 hc      4  FDE        0.0257
    120 H13       108.4500  101.1800   98.6200 hc      4  FDE        0.0257
    121 H14       108.6600  102.0400  102.1000 ho      4  FDE        0.2105
    122 H15       113.7200  100.1000   96.3500 ho      4  FDE        0.2105
    123 H16       113.7500  104.1200   94.9600 h4      4  FDE        0.0902
    124 H17       111.0300  104.1000   94.6800 ha      4  FDE        0.0645
    125 H18       110.1000  103.0300   97.0100 ha      4  FDE        0.0648
@<TRIPOS>BOND
     1     1     2    1
     2     2     3    1
     3     2     4    1
     4     2     5    1
     5     3     6    1
     6     3     7    2
     7     6     8    1
     8     8     9    2
     9     7     9    1
    10     8    10    1
    11    10    11    1
    12    10    12    1
    13    10    13    1
    14    11    14    2
    15    14    15    1
    16    11    16    1
    17    16    17    1
    18    15    17    2
    19    17    18    1
    20    18    19    1
    21    18    20    1
    22    18    21    1
    23    19    22    1
    24     7    23    1
    25     9    24    1
    26    14    25    1
    27    15    26    1
    28    27    28    1
    29    28    29    2
    30    27    30    1
    31    30    31    2
    32    29    31    1
    33    30    32    1
    34    32    33    1
    35    32    34    1
    36    32    35    1
    37    33    36    1
    38    33    37    1
    39    37    38    1
    40    37    39    1
    41    37    40    1
    42    38    41    1
    43    41    42    1
    44    41    43    1
    45    41    44    1
    46    38    45    1
    47    38    46    1
    48    36    47    1
    49    36    48    1
    50    36    49    1
    51    47    50    1
    52    47    51    1
    53    47    52    1
    54    51    53    1
    55    51    54    1
    56    50    55    1
    57    45    56    1
    58    28    57    1
    59    29    58    1
    60    31    59    1
    61     1    51    1
    62    60    61    1
    63    61    62    2
    64    60    63    1
    65    63    64    2
    66    62    64    1
    67    63    65    1
    68    65    66    1
    69    65    67    1
    70    65    68    1
    71    66    69    1
    72    66    70    1
    73    70    71    1
    74    70    72    1
    75    70    73    1
    76    71    74    1
    77    74    75    1
    78    74    76    1
    79    74    77    1
    80    71    78    1
    81    71    79    1
    82    69    80    1
    83    69    81    1
    84    69    82    1
    85    80    83    1
    86    80    84    1
    87    80    85    1
    88    84    86    1
    89    84    87    1
    90    83    88    1
    91    78    89    1
    92    61    90    1
    93    62    91    1
    94    64    92    1
    95     1    84    1
    96    93    94    1
    97    94    95    2
    98    93    96    1
    99    96    97    2
   100    95    97    1
   101    96    98    1
   102    98    99    1
   103    98   100    1
   104    98   101    1
   105    99   102    1
   106    99   103    1
   107   103   104    1
   108   103   105    1
   109   103   106    1
   110   104   107    1
   111   107   108    1
   112   107   109    1
   113   107   110    1
   114   104   111    1
   115   104   112    1
   116   102   113    1
   117   102   114    1
   118   102   115    1
   119   113   116    1
   120   113   117    1
   121   113   118    1
   122   117   119    1
   123   117   120    1
   124   116   121    1
   125   111   122    1
   126    94   123    1
   127    95   124    1
   128    97   125    1
   129    19   117    1
