@<TRIPOS>MOLECULE
DFA+FDE+FDE
    93    96  1  0  0
SMALL
gas

@<TRIPOS>ATOM
      1 N1         95.2800   98.8400  100.5800 n3      1  DFA       -0.3248
      2 C          96.1100   99.6500  101.4700 c3      1  DFA        0.0403
      3 C1         97.5800   99.3900  101.2500 cc      1  DFA        0.0725
      4 H          95.8600   99.4500  102.5200 h1      1  DFA        0.0498
      5 H1         95.9200  100.7200  101.2800 h1      1  DFA        0.0498
      6 O          98.3700  100.3200  100.6400 os      1  DFA       -0.3174
      7 C2         98.2200   98.2400  101.6300 cd      1  DFA       -0.0319
      8 C3         99.5800   99.6900  100.6500 cc      1  DFA        0.0654
      9 C4         99.5700   98.4400  101.2200 cd      1  DFA       -0.0327
     10 C5        100.7600  100.3500   99.9900 c3      1  DFA        0.0418
     11 C6        102.1200   99.7900  100.3500 cc      1  DFA        0.0654
     12 H2        100.7500  101.4200  100.2400 hc      1  DFA        0.0409
     13 H3        100.6300  100.3100   98.9000 hc      1  DFA        0.0409
     14 C7        102.5900   98.5800   99.9100 cd      1  DFA       -0.0327
     15 C8        103.9700   98.5800  100.2600 cd      1  DFA       -0.0319
     16 O1        103.0600  100.5900  100.9500 os      1  DFA       -0.3174
     17 C9        104.1700   99.8000  100.8600 cc      1  DFA        0.0725
     18 C10       105.5200  100.3900  101.2000 c3      1  DFA        0.0403
     19 N2        106.6500   99.5600  100.7400 n3      1  DFA       -0.3248
     20 H4        105.5900  100.5500  102.2900 h1      1  DFA        0.0498
     21 H5        105.5500  101.3800  100.7300 h1      1  DFA        0.0498
     22 H7         95.5800   98.9800   99.6100 hn      1  DFA        0.1188
     23 H8        106.7200   98.7500  101.3500 hn      1  DFA        0.1188
     24 H10        97.8000   97.3700  102.1100 ha      1  DFA        0.0648
     25 H11       100.3900   97.7400  101.3300 ha      1  DFA        0.0648
     26 H12       102.0600   97.8200   99.3500 ha      1  DFA        0.0648
     27 H13       104.7000   97.8200  100.0200 ha      1  DFA        0.0648
     28 O          88.5000  100.4000  103.3000 os      2  FDE       -0.3212
     29 C          88.9200  101.0000  104.4600 cc      2  FDE        0.0455
     30 C3         90.2800  101.0300  104.6000 cd      2  FDE       -0.0364
     31 C4         89.6900  100.0400  102.7200 cc      2  FDE        0.0725
     32 C5         90.8000  100.4000  103.4400 cd      2  FDE       -0.0322
     33 C6         89.7100   99.3900  101.3600 c3      2  FDE        0.0457
     34 N          90.9100   98.5400  101.1500 n3      2  FDE       -0.2919
     35 H          89.6900  100.2000  100.6300 h1      2  FDE        0.0503
     36 H1         88.7900   98.8000  101.2100 h1      2  FDE        0.0503
     37 C7         91.4900   98.7000   99.7900 c3      2  FDE        0.0245
     38 C8         90.7600   97.1100  101.5600 c3      2  FDE        0.0245
     39 C9         90.3300   96.8800  103.0300 c3      2  FDE        0.0639
     40 H2         91.7300   96.6100  101.4200 h1      2  FDE        0.0458
     41 H3         90.0500   96.6100  100.9000 h1      2  FDE        0.0458
     42 C1         90.7500   95.4700  103.5100 c3      2  FDE       -0.0377
     43 H4         90.2800   94.6900  102.8900 hc      2  FDE        0.0257
     44 H5         90.4400   95.3100  104.5500 hc      2  FDE        0.0257
     45 H6         91.8400   95.3400  103.4500 hc      2  FDE        0.0257
     46 O1         88.9200   96.9900  103.1600 oh      2  FDE       -0.3921
     47 H7         90.8300   97.6100  103.6700 h1      2  FDE        0.0611
     48 C10        92.9900   98.3100   99.7000 c3      2  FDE        0.0639
     49 H8         91.4100   99.7500   99.4900 h1      2  FDE        0.0458
     50 H9         90.9100   98.1100   99.0700 h1      2  FDE        0.0458
     51 O2         93.4300   98.5100   98.3600 oh      2  FDE       -0.3921
     52 C2         93.8400   99.1500  100.6800 c3      2  FDE       -0.0377
     53 H10        93.1000   97.2500   99.9600 h1      2  FDE        0.0611
     54 H11        93.6800  100.2100  100.4700 hc      2  FDE        0.0257
     55 H13        93.5100   98.9600  101.7100 hc      2  FDE        0.0257
     56 H14        93.4000   99.4700   98.1800 ho      2  FDE        0.2105
     57 H15        88.7100   97.0700  104.1100 ho      2  FDE        0.2105
     58 H16        88.1400  101.3800  105.1100 h4      2  FDE        0.0902
     59 H17        90.8500  101.4600  105.4200 ha      2  FDE        0.0645
     60 H18        91.8400  100.2500  103.1800 ha      2  FDE        0.0648
     61 O         106.7300  105.1200   97.4200 os      3  FDE       -0.3212
     62 C         107.6800  106.0700   97.6700 cc      3  FDE        0.0455
     63 C3        108.9700  105.6000   97.5900 cd      3  FDE       -0.0364
     64 C4        107.4900  104.0100   97.1800 cc      3  FDE        0.0725
     65 C5        108.8500  104.2300   97.2600 cd      3  FDE       -0.0322
     66 C6        106.8300  102.7000   96.8600 c3      3  FDE        0.0457
     67 N         107.7500  101.5300   96.9500 n3      3  FDE       -0.2919
     68 H         106.4200  102.7800   95.8500 h1      3  FDE        0.0503
     69 H1        105.9700  102.5600   97.5300 h1      3  FDE        0.0503
     70 C7        107.8100  100.7700   95.6800 c3      3  FDE        0.0245
     71 C8        107.5100  100.6900   98.1600 c3      3  FDE        0.0245
     72 C9        108.0900  101.2600   99.4800 c3      3  FDE        0.0639
     73 H2        107.9700   99.7000   98.0200 h1      3  FDE        0.0458
     74 H3        106.4400  100.5100   98.2800 h1      3  FDE        0.0458
     75 C1        107.9700  100.2300  100.6500 c3      3  FDE       -0.0377
     76 H5        108.2200  100.7200  101.6000 hc      3  FDE        0.0257
     77 H6        108.7300   99.4600  100.4800 hc      3  FDE        0.0257
     78 O1        107.5000  102.5000   99.8500 oh      3  FDE       -0.3921
     79 H7        109.1700  101.4300   99.3200 h1      3  FDE        0.0611
     80 C10       109.0500   99.8400   95.5500 c3      3  FDE        0.0639
     81 H8        107.8400  101.4700   94.8400 h1      3  FDE        0.0458
     82 H9        106.8900  100.1700   95.5700 h1      3  FDE        0.0458
     83 O2        108.9900   99.1600   94.3000 oh      3  FDE       -0.3921
     84 C2        110.3700  100.6300   95.6400 c3      3  FDE       -0.0377
     85 H10       109.0300   99.1000   96.3500 h1      3  FDE        0.0611
     86 H11       110.4100  101.4200   94.8800 hc      3  FDE        0.0257
     87 H12       111.2300   99.9600   95.4800 hc      3  FDE        0.0257
     88 H13       110.4900  101.0900   96.6300 hc      3  FDE        0.0257
     89 H14       109.0400   99.8300   93.6000 ho      3  FDE        0.2105
     90 H15       108.0000  102.8600  100.6100 ho      3  FDE        0.2105
     91 H16       107.3200  107.0700   97.9000 h4      3  FDE        0.0902
     92 H17       109.8800  106.1600   97.7400 ha      3  FDE        0.0645
     93 H18       109.6500  103.5200   97.1100 ha      3  FDE        0.0648
@<TRIPOS>BOND
     1     1     2    1
     2     2     3    1
     3     2     4    1
     4     2     5    1
     5     3     6    1
     6     3     7    2
     7     6     8    1
     8     8     9    2
     9     7     9    1
    10     8    10    1
    11    10    11    1
    12    10    12    1
    13    10    13    1
    14    11    14    2
    15    14    15    1
    16    11    16    1
    17    16    17    1
    18    15    17    2
    19    17    18    1
    20    18    19    1
    21    18    20    1
    22    18    21    1
    23     1    22    1
    24    19    23    1
    25     7    24    1
    26     9    25    1
    27    14    26    1
    28    15    27    1
    29    28    29    1
    30    29    30    2
    31    28    31    1
    32    31    32    2
    33    30    32    1
    34    31    33    1
    35    33    34    1
    36    33    35    1
    37    33    36    1
    38    34    37    1
    39    34    38    1
    40    38    39    1
    41    38    40    1
    42    38    41    1
    43    39    42    1
    44    42    43    1
    45    42    44    1
    46    42    45    1
    47    39    46    1
    48    39    47    1
    49    37    48    1
    50    37    49    1
    51    37    50    1
    52    48    51    1
    53    48    52    1
    54    48    53    1
    55    52    54    1
    56    52    55    1
    57    51    56    1
    58    46    57    1
    59    29    58    1
    60    30    59    1
    61    32    60    1
    62     1    52    1
    63    61    62    1
    64    62    63    2
    65    61    64    1
    66    64    65    2
    67    63    65    1
    68    64    66    1
    69    66    67    1
    70    66    68    1
    71    66    69    1
    72    67    70    1
    73    67    71    1
    74    71    72    1
    75    71    73    1
    76    71    74    1
    77    72    75    1
    78    75    76    1
    79    75    77    1
    80    72    78    1
    81    72    79    1
    82    70    80    1
    83    70    81    1
    84    70    82    1
    85    80    83    1
    86    80    84    1
    87    80    85    1
    88    84    86    1
    89    84    87    1
    90    84    88    1
    91    83    89    1
    92    78    90    1
    93    62    91    1
    94    63    92    1
    95    65    93    1
    96    19    75    1
