@<TRIPOS>MOLECULE
DFA+FDE+FDE+FDE+FDE
   157   162  1  0  0
SMALL
gas

@<TRIPOS>ATOM
      1 N1         94.5300   98.7700   99.5100 n3      1  DFA       -0.3248
      2 C          95.6500   99.7300   99.5300 c3      1  DFA        0.0403
      3 C1         96.9500   99.2400  100.1200 cc      1  DFA        0.0725
      4 H          95.3600  100.6000  100.1200 h1      1  DFA        0.0498
      5 H1         95.8500  100.0900   98.5100 h1      1  DFA        0.0498
      6 O          98.0300  100.0800  100.1000 os      1  DFA       -0.3174
      7 C2         97.1100   98.1100  100.8800 cd      1  DFA       -0.0319
      8 C3         98.9100   99.4000  100.8900 cc      1  DFA        0.0654
      9 C4         98.4300   98.2100  101.3900 cd      1  DFA       -0.0327
     10 C5        100.1900  100.0500  101.3500 c3      1  DFA        0.0418
     11 C6        101.3900   99.8000  100.4700 cc      1  DFA        0.0654
     12 H2        100.4300   99.7300  102.3700 hc      1  DFA        0.0409
     13 H3        100.0300  101.1400  101.4200 hc      1  DFA        0.0409
     14 C7        101.6000   98.6900   99.6900 cd      1  DFA       -0.0327
     15 C8        102.9100   98.8500   99.1700 cd      1  DFA       -0.0319
     16 O1        102.4400  100.6800  100.5100 os      1  DFA       -0.3174
     17 C9        103.3500  100.0300   99.7100 cc      1  DFA        0.0725
     18 C10       104.7100  100.6400   99.5000 c3      1  DFA        0.0403
     19 N2        105.8600   99.7300   99.7900 n3      1  DFA       -0.3248
     20 H4        104.7800  101.5400  100.1100 h1      1  DFA        0.0498
     21 H5        104.7500  100.9700   98.4500 h1      1  DFA        0.0498
     22 H10        96.3800   97.3400  101.1000 ha      1  DFA        0.0648
     23 H11        98.9200   97.5400  102.0900 ha      1  DFA        0.0648
     24 H12       100.9200   97.8600   99.5300 ha      1  DFA        0.0648
     25 H13       103.4500   98.1700   98.5200 ha      1  DFA        0.0648
     26 O          89.4900   95.3800   98.7600 os      2  FDE       -0.3212
     27 C          89.1400   95.1200   97.4500 cc      2  FDE        0.0455
     28 C3         90.0100   94.2900   96.8000 cd      2  FDE       -0.0364
     29 C4         90.6600   94.6800   98.8700 cc      2  FDE        0.0725
     30 C5         91.0300   93.9900   97.7400 cd      2  FDE       -0.0322
     31 C6         91.4200   94.6500  100.1700 c3      2  FDE        0.0457
     32 N          92.8900   94.5800  100.0100 n3      2  FDE       -0.2919
     33 H          91.0500   93.7700  100.7200 h1      2  FDE        0.0503
     34 H1         91.1400   95.5300  100.7700 h1      2  FDE        0.0503
     35 C7         93.5200   93.6100  100.9400 c3      2  FDE        0.0245
     36 C8         93.5700   95.9100   99.9600 c3      2  FDE        0.0245
     37 C9         93.7000   96.5100   98.5300 c3      2  FDE        0.0639
     38 H2         94.5800   95.8200  100.3600 h1      2  FDE        0.0458
     39 H3         93.0500   96.6200  100.6200 h1      2  FDE        0.0458
     40 C1         94.6800   97.7100   98.4600 c3      2  FDE       -0.0377
     41 H5         94.6100   98.1700   97.4700 hc      2  FDE        0.0257
     42 H6         95.7000   97.3000   98.5300 hc      2  FDE        0.0257
     43 O1         92.4500   96.8500   97.9600 oh      2  FDE       -0.3921
     44 H7         94.1400   95.7200   97.9000 h1      2  FDE        0.0611
     45 C10        94.9100   93.1300  100.4800 c3      2  FDE        0.0639
     46 H8         92.8800   92.7200  101.0200 h1      2  FDE        0.0458
     47 H9         93.5900   94.0600  101.9400 h1      2  FDE        0.0458
     48 O2         95.4300   92.2100  101.4400 oh      2  FDE       -0.3921
     49 C2         94.8700   92.4400   99.1000 c3      2  FDE       -0.0377
     50 H10        95.6000   93.9800  100.4100 h1      2  FDE        0.0611
     51 H11        94.1600   91.6000   99.1000 hc      2  FDE        0.0257
     52 H12        95.8600   92.0500   98.8300 hc      2  FDE        0.0257
     53 H13        94.5700   93.1400   98.3200 hc      2  FDE        0.0257
     54 H14        94.8500   91.4300  101.4500 ho      2  FDE        0.2105
     55 H15        92.2100   97.7500   98.2700 ho      2  FDE        0.2105
     56 H16        88.2300   95.5900   97.1000 h4      2  FDE        0.0902
     57 H17        89.9500   93.9400   95.7700 ha      2  FDE        0.0645
     58 H18        91.9000   93.3600   97.6000 ha      2  FDE        0.0648
     59 O          96.6000  104.3800  100.9100 os      3  FDE       -0.3212
     60 C          97.2200  104.0300  102.0900 cc      3  FDE        0.0455
     61 C3         96.6200  102.9700  102.7300 cd      3  FDE       -0.0364
     62 C4         95.5800  103.4700  100.8400 cc      3  FDE        0.0725
     63 C5         95.5400  102.5900  101.9000 cd      3  FDE       -0.0322
     64 C6         94.7200  103.4100   99.6100 c3      3  FDE        0.0457
     65 N          93.5600  102.4800   99.7100 n3      3  FDE       -0.2919
     66 H          95.3800  103.0800   98.8000 h1      3  FDE        0.0503
     67 H1         94.3800  104.4100   99.3400 h1      3  FDE        0.0503
     68 C7         93.3700  101.6900   98.4600 c3      3  FDE        0.0245
     69 C8         92.2900  103.0900  100.1900 c3      3  FDE        0.0245
     70 C9         92.3600  103.8500  101.5500 c3      3  FDE        0.0639
     71 H2         91.5400  102.3000  100.3000 h1      3  FDE        0.0458
     72 H3         91.9100  103.7900   99.4300 h1      3  FDE        0.0458
     73 C1         90.9500  104.0200  102.1500 c3      3  FDE       -0.0377
     74 H4         90.3000  104.6000  101.4700 hc      3  FDE        0.0257
     75 H5         91.0000  104.5600  103.1100 hc      3  FDE        0.0257
     76 H6         90.4800  103.0500  102.3400 hc      3  FDE        0.0257
     77 O1         92.9300  105.1400  101.3800 oh      3  FDE       -0.3921
     78 H7         92.9600  103.2600  102.2500 h1      3  FDE        0.0611
     79 C10        92.6000  100.3600   98.6500 c3      3  FDE        0.0639
     80 H8         94.3400  101.4600   98.0100 h1      3  FDE        0.0458
     81 H9         92.8300  102.3100   97.7300 h1      3  FDE        0.0458
     82 O2         92.4800   99.7200   97.3900 oh      3  FDE       -0.3921
     83 C2         93.1800   99.3800   99.7300 c3      3  FDE       -0.0377
     84 H10        91.5900  100.6100   98.9800 h1      3  FDE        0.0611
     85 H12        92.4400   98.5900   99.8800 hc      3  FDE        0.0257
     86 H13        93.2200   99.9300  100.6800 hc      3  FDE        0.0257
     87 H14        93.3700   99.4300   97.1200 ho      3  FDE        0.2105
     88 H15        93.1200  105.5000  102.2600 ho      3  FDE        0.2105
     89 H16        98.0800  104.6100  102.3600 h4      3  FDE        0.0902
     90 H17        96.9300  102.5100  103.6600 ha      3  FDE        0.0645
     91 H18        94.8500  101.7700  102.0600 ha      3  FDE        0.0648
     92 O         106.0500  104.8700   96.0300 os      4  FDE       -0.3212
     93 C         106.9500  105.8700   96.2800 cc      4  FDE        0.0455
     94 C3        108.2600  105.4500   96.2200 cd      4  FDE       -0.0364
     95 C4        106.8600  103.7900   95.8200 cc      4  FDE        0.0725
     96 C5        108.2000  104.0700   95.9200 cd      4  FDE       -0.0322
     97 C6        106.2700  102.4300   95.5600 c3      4  FDE        0.0457
     98 N         107.2400  101.3200   95.7100 n3      4  FDE       -0.2919
     99 H         105.8400  102.4500   94.5500 h1      4  FDE        0.0503
    100 H1        105.4200  102.2900   96.2400 h1      4  FDE        0.0503
    101 C7        107.4100  100.5600   94.4400 c3      4  FDE        0.0245
    102 C8        107.0200  100.4800   96.9200 c3      4  FDE        0.0245
    103 C9        107.4500  101.1400   98.2600 c3      4  FDE        0.0639
    104 H2        107.6000   99.5500   96.8300 h1      4  FDE        0.0458
    105 H3        105.9700  100.1700   96.9600 h1      4  FDE        0.0458
    106 C1        107.2400  100.2100   99.4800 c3      4  FDE       -0.0377
    107 H5        107.6500  100.7500  100.3500 hc      4  FDE        0.0257
    108 H6        107.8900   99.3400   99.3500 hc      4  FDE        0.0257
    109 O1        106.8500  102.4100   98.5000 oh      4  FDE       -0.3921
    110 H7        108.5400  101.3000   98.1700 h1      4  FDE        0.0611
    111 C10       108.7000   99.7100   94.3800 c3      4  FDE        0.0639
    112 H8        107.4500  101.2700   93.6100 h1      4  FDE        0.0458
    113 H9        106.5400   99.9200   94.2800 h1      4  FDE        0.0458
    114 O2        108.7600   99.0600   93.1100 oh      4  FDE       -0.3921
    115 C2        109.9800  100.5500   94.5700 c3      4  FDE       -0.0377
    116 H10       108.6700   98.9400   95.1600 h1      4  FDE        0.0611
    117 H11       110.0200  101.3800   93.8500 hc      4  FDE        0.0257
    118 H12       110.8700   99.9300   94.4400 hc      4  FDE        0.0257
    119 H13       110.0100  100.9800   95.5800 hc      4  FDE        0.0257
    120 H14       108.8100   99.7500   92.4300 ho      4  FDE        0.2105
    121 H15       107.3100  102.8200   99.2600 ho      4  FDE        0.2105
    122 H16       106.5400  106.8500   96.5000 h4      4  FDE        0.0902
    123 H17       109.1500  106.0500   96.3900 ha      4  FDE        0.0645
    124 H18       109.0400  103.3900   95.8000 ha      4  FDE        0.0648
    125 O         102.2300  102.2900  104.3100 os      5  FDE       -0.3212
    126 C         101.6300  101.5800  105.3100 cc      5  FDE        0.0455
    127 C3        102.5100  100.9200  106.1300 cd      5  FDE       -0.0364
    128 C4        103.5600  102.0200  104.5400 cc      5  FDE        0.0725
    129 C5        103.8000  101.2200  105.6200 cd      5  FDE       -0.0322
    130 C6        104.6100  102.5800  103.6100 c3      5  FDE        0.0457
    131 N         105.9300  101.9000  103.7300 n3      5  FDE       -0.2919
    132 H         104.7100  103.6500  103.8300 h1      5  FDE        0.0503
    133 H1        104.2400  102.5100  102.5800 h1      5  FDE        0.0503
    134 C7        106.9900  102.8500  104.1400 c3      5  FDE        0.0245
    135 C8        106.2800  101.0800  102.5400 c3      5  FDE        0.0245
    136 C9        105.5400   99.7100  102.4000 c3      5  FDE        0.0639
    137 H2        107.3400  100.8300  102.5600 h1      5  FDE        0.0458
    138 H3        106.1300  101.6900  101.6400 h1      5  FDE        0.0458
    139 C1        105.8100   98.9500  101.0600 c3      5  FDE       -0.0377
    140 H5        105.0300   98.1800  100.9600 hc      5  FDE        0.0257
    141 H6        106.7500   98.3900  101.1700 hc      5  FDE        0.0257
    142 O1        104.1400   99.7800  102.6300 oh      5  FDE       -0.3921
    143 H7        105.9500   99.0700  103.1900 h1      5  FDE        0.0611
    144 C10       108.3000  102.1900  104.6500 c3      5  FDE        0.0639
    145 H8        106.6100  103.4800  104.9500 h1      5  FDE        0.0458
    146 H9        107.2300  103.5100  103.3000 h1      5  FDE        0.0458
    147 O2        109.2300  103.2100  105.0000 oh      5  FDE       -0.3921
    148 C2        108.0600  101.2900  105.8800 c3      5  FDE       -0.0377
    149 H10       108.7400  101.5800  103.8500 h1      5  FDE        0.0611
    150 H11       107.5900  101.8500  106.6900 hc      5  FDE        0.0257
    151 H12       109.0100  100.8800  106.2400 hc      5  FDE        0.0257
    152 H13       107.4100  100.4400  105.6200 hc      5  FDE        0.0257
    153 H14       108.8500  103.7300  105.7300 ho      5  FDE        0.2105
    154 H15       103.7300  100.2900  101.9100 ho      5  FDE        0.2105
    155 H16       100.5500  101.6200  105.3400 h4      5  FDE        0.0902
    156 H17       102.2700  100.3000  106.9800 ha      5  FDE        0.0645
    157 H18       104.7500  100.8600  105.9900 ha      5  FDE        0.0648
@<TRIPOS>BOND
     1     1     2    1
     2     2     3    1
     3     2     4    1
     4     2     5    1
     5     3     6    1
     6     3     7    2
     7     6     8    1
     8     8     9    2
     9     7     9    1
    10     8    10    1
    11    10    11    1
    12    10    12    1
    13    10    13    1
    14    11    14    2
    15    14    15    1
    16    11    16    1
    17    16    17    1
    18    15    17    2
    19    17    18    1
    20    18    19    1
    21    18    20    1
    22    18    21    1
    23     7    22    1
    24     9    23    1
    25    14    24    1
    26    15    25    1
    27    26    27    1
    28    27    28    2
    29    26    29    1
    30    29    30    2
    31    28    30    1
    32    29    31    1
    33    31    32    1
    34    31    33    1
    35    31    34    1
    36    32    35    1
    37    32    36    1
    38    36    37    1
    39    36    38    1
    40    36    39    1
    41    37    40    1
    42    40    41    1
    43    40    42    1
    44    37    43    1
    45    37    44    1
    46    35    45    1
    47    35    46    1
    48    35    47    1
    49    45    48    1
    50    45    49    1
    51    45    50    1
    52    49    51    1
    53    49    52    1
    54    49    53    1
    55    48    54    1
    56    43    55    1
    57    27    56    1
    58    28    57    1
    59    30    58    1
    60     1    40    1
    61    59    60    1
    62    60    61    2
    63    59    62    1
    64    62    63    2
    65    61    63    1
    66    62    64    1
    67    64    65    1
    68    64    66    1
    69    64    67    1
    70    65    68    1
    71    65    69    1
    72    69    70    1
    73    69    71    1
    74    69    72    1
    75    70    73    1
    76    73    74    1
    77    73    75    1
    78    73    76    1
    79    70    77    1
    80    70    78    1
    81    68    79    1
    82    68    80    1
    83    68    81    1
    84    79    82    1
    85    79    83    1
    86    79    84    1
    87    83    85    1
    88    83    86    1
    89    82    87    1
    90    77    88    1
    91    60    89    1
    92    61    90    1
    93    63    91    1
    94     1    83    1
    95    92    93    1
    96    93    94    2
    97    92    95    1
    98    95    96    2
    99    94    96    1
   100    95    97    1
   101    97    98    1
   102    97    99    1
   103    97   100    1
   104    98   101    1
   105    98   102    1
   106   102   103    1
   107   102   104    1
   108   102   105    1
   109   103   106    1
   110   106   107    1
   111   106   108    1
   112   103   109    1
   113   103   110    1
   114   101   111    1
   115   101   112    1
   116   101   113    1
   117   111   114    1
   118   111   115    1
   119   111   116    1
   120   115   117    1
   121   115   118    1
   122   115   119    1
   123   114   120    1
   124   109   121    1
   125    93   122    1
   126    94   123    1
   127    96   124    1
   128    19   106    1
   129   125   126    1
   130   126   127    2
   131   125   128    1
   132   128   129    2
   133   127   129    1
   134   128   130    1
   135   130   131    1
   136   130   132    1
   137   130   133    1
   138   131   134    1
   139   131   135    1
   140   135   136    1
   141   135   137    1
   142   135   138    1
   143   136   139    1
   144   139   140    1
   145   139   141    1
   146   136   142    1
   147   136   143    1
   148   134   144    1
   149   134   145    1
   150   134   146    1
   151   144   147    1
   152   144   148    1
   153   144   149    1
   154   148   150    1
   155   148   151    1
   156   148   152    1
   157   147   153    1
   158   142   154    1
   159   126   155    1
   160   127   156    1
   161   129   157    1
   162    19   139    1
