@<TRIPOS>MOLECULE
DFA+FDE+FDE+FDE+FDE
   157   162  1  0  0
SMALL
gas

@<TRIPOS>ATOM
      1 N1         95.1500   98.9800   98.7700 n3      1  DFA       -0.3248
      2 C          95.8900  100.1400   98.2000 c3      1  DFA        0.0403
      3 C1         97.3600  100.2200   98.5500 cc      1  DFA        0.0725
      4 H          95.4400  101.0700   98.5700 h1      1  DFA        0.0498
      5 H1         95.7800  100.1600   97.1100 h1      1  DFA        0.0498
      6 O          98.0000  101.4300   98.4300 os      1  DFA       -0.3174
      7 C2         98.1500   99.2000   99.0100 cd      1  DFA       -0.0319
      8 C3         99.2600  101.1000   98.8600 cc      1  DFA        0.0654
      9 C4         99.4200   99.8000   99.2400 cd      1  DFA       -0.0327
     10 C5        100.3300  102.1600   98.9200 c3      1  DFA        0.0418
     11 C6        101.7400  101.6500   98.7800 cc      1  DFA        0.0654
     12 H2        100.2400  102.7000   99.8700 hc      1  DFA        0.0409
     13 H3        100.1500  102.9100   98.1400 hc      1  DFA        0.0409
     14 C7        102.1600  100.7700   97.8100 cd      1  DFA       -0.0327
     15 C8        103.5700  100.7400   97.9300 cd      1  DFA       -0.0319
     16 O1        102.7500  102.2100   99.5200 os      1  DFA       -0.3174
     17 C9        103.8500  101.6200   98.9500 cc      1  DFA        0.0725
     18 C10       105.2200  102.1800   99.2200 c3      1  DFA        0.0403
     19 N2        106.3000  101.1600   99.2100 n3      1  DFA       -0.3248
     20 H4        105.2100  102.7100  100.1800 h1      1  DFA        0.0498
     21 H5        105.3800  102.9400   98.4500 h1      1  DFA        0.0498
     22 H10        97.8900   98.1700   99.1900 ha      1  DFA        0.0648
     23 H11       100.3100   99.3100   99.6200 ha      1  DFA        0.0648
     24 H12       101.5600  100.2600   97.0700 ha      1  DFA        0.0648
     25 H13       104.2700  100.2300   97.2900 ha      1  DFA        0.0648
     26 O          88.3000  100.8900  102.1400 os      2  FDE       -0.3212
     27 C          88.6600  101.3000  103.4000 cc      2  FDE        0.0455
     28 C3         90.0000  101.5100  103.5500 cd      2  FDE       -0.0364
     29 C4         89.5200  100.8500  101.5100 cc      2  FDE        0.0725
     30 C5         90.5800  101.2100  102.2900 cd      2  FDE       -0.0322
     31 C6         89.6100  100.5600  100.0300 c3      2  FDE        0.0457
     32 N          90.7400   99.6500   99.6800 n3      2  FDE       -0.2919
     33 H          89.7400  101.5300   99.5400 h1      2  FDE        0.0503
     34 H1         88.6600  100.1500   99.6700 h1      2  FDE        0.0503
     35 C7         91.4000  100.1100   98.4400 c3      2  FDE        0.0245
     36 C8         90.4000   98.2000   99.6900 c3      2  FDE        0.0245
     37 C9         89.7100   97.6800  100.9700 c3      2  FDE        0.0639
     38 H2         91.3300   97.6300   99.5600 h1      2  FDE        0.0458
     39 H3         89.7600   97.9700   98.8300 h1      2  FDE        0.0458
     40 C1         89.9900   96.1700  101.1900 c3      2  FDE       -0.0377
     41 H4         89.5800   95.5800  100.3600 hc      2  FDE        0.0257
     42 H5         89.5300   95.8200  102.1200 hc      2  FDE        0.0257
     43 H6         91.0600   95.9800  101.2500 hc      2  FDE        0.0257
     44 O1         88.3000   97.8600  100.8800 oh      2  FDE       -0.3921
     45 H7         90.1100   98.2200  101.8400 h1      2  FDE        0.0611
     46 C10        92.6900   99.3600   98.0300 c3      2  FDE        0.0639
     47 H8         91.6600  101.1700   98.5500 h1      2  FDE        0.0458
     48 H9         90.6900  100.0400   97.6100 h1      2  FDE        0.0458
     49 O2         93.1900   99.9900   96.8500 oh      2  FDE       -0.3921
     50 C2         93.7500   99.3100   99.1700 c3      2  FDE       -0.0377
     51 H10        92.4200   98.3300   97.7700 h1      2  FDE        0.0611
     52 H11        93.7500  100.2700   99.7000 hc      2  FDE        0.0257
     53 H13        93.4100   98.5700   99.8900 hc      2  FDE        0.0257
     54 H14        93.4500  100.9000   97.0900 ho      2  FDE        0.2105
     55 H15        87.9300   97.7800  101.7800 ho      2  FDE        0.2105
     56 H16        87.8500  101.4300  104.1100 h4      2  FDE        0.0902
     57 H17        90.5200  101.8500  104.4500 ha      2  FDE        0.0645
     58 H18        91.6200  101.2800  102.0100 ha      2  FDE        0.0648
     59 O          93.0300   96.3900  104.5300 os      3  FDE       -0.3212
     60 C          92.2600   97.3800  105.0900 cc      3  FDE        0.0455
     61 C3         91.9800   98.4100  104.2200 cd      3  FDE       -0.0364
     62 C4         93.2100   96.8600  103.2600 cc      3  FDE        0.0725
     63 C5         92.6000   98.0600  103.0000 cd      3  FDE       -0.0322
     64 C6         93.9500   96.0200  102.2500 c3      3  FDE        0.0457
     65 N          94.6900   96.7800  101.2000 n3      3  FDE       -0.2919
     66 H          93.1900   95.3800  101.7700 h1      3  FDE        0.0503
     67 H1         94.6400   95.3500  102.7700 h1      3  FDE        0.0503
     68 C7         94.6500   96.0300   99.9200 c3      3  FDE        0.0245
     69 C8         96.0400   97.2600  101.6100 c3      3  FDE        0.0245
     70 C9         96.0900   98.1400  102.8900 c3      3  FDE        0.0639
     71 H2         96.4300   97.8800  100.8100 h1      3  FDE        0.0458
     72 H3         96.7200   96.4100  101.7300 h1      3  FDE        0.0458
     73 C1         97.2800   99.1300  102.8300 c3      3  FDE       -0.0377
     74 H4         98.2300   98.5900  102.7200 hc      3  FDE        0.0257
     75 H5         97.3300   99.7300  103.7500 hc      3  FDE        0.0257
     76 H6         97.1700   99.8200  101.9800 hc      3  FDE        0.0257
     77 O1         96.2400   97.3200  104.0400 oh      3  FDE       -0.3921
     78 H7         95.1800   98.7400  102.9600 h1      3  FDE        0.0611
     79 C10        95.6300   96.4300   98.7800 c3      3  FDE        0.0639
     80 H8         93.6200   96.0500   99.5200 h1      3  FDE        0.0458
     81 H9         94.8700   94.9700  100.1500 h1      3  FDE        0.0458
     82 O2         95.6600   95.3600   97.8400 oh      3  FDE       -0.3921
     83 C2         95.3000   97.7300   97.9900 c3      3  FDE       -0.0377
     84 H10        96.6300   96.5100   99.2100 h1      3  FDE        0.0611
     85 H11        94.4200   97.5500   97.3700 hc      3  FDE        0.0257
     86 H12        96.1300   97.8600   97.2800 hc      3  FDE        0.0257
     87 H14        96.3300   95.5700   97.1700 ho      3  FDE        0.2105
     88 H15        96.0300   97.8600  104.8200 ho      3  FDE        0.2105
     89 H16        91.9800   97.2400  106.1200 h4      3  FDE        0.0902
     90 H17        91.3900   99.2900  104.4300 ha      3  FDE        0.0645
     91 H18        92.5800   98.6200  102.0700 ha      3  FDE        0.0648
     92 O         106.0800  105.9100   95.6200 os      4  FDE       -0.3212
     93 C         106.9500  106.9500   95.8400 cc      4  FDE        0.0455
     94 C3        108.2500  106.6600   95.5200 cd      4  FDE       -0.0364
     95 C4        106.9300  104.9400   95.1600 cc      4  FDE        0.0725
     96 C5        108.2400  105.3200   95.0600 cd      4  FDE       -0.0322
     97 C6        106.4100  103.5800   94.7700 c3      4  FDE        0.0457
     98 N         107.3200  102.4600   95.0800 n3      4  FDE       -0.2919
     99 H         106.2300  103.6300   93.6800 h1      4  FDE        0.0503
    100 H1        105.4200  103.4300   95.2300 h1      4  FDE        0.0503
    101 C7        107.3500  101.4600   93.9900 c3      4  FDE        0.0245
    102 C8        107.0800  101.8500   96.4200 c3      4  FDE        0.0245
    103 C9        107.8400  102.5000   97.6100 c3      4  FDE        0.0639
    104 H2        107.3800  100.8000   96.4200 h1      4  FDE        0.0458
    105 H3        106.0000  101.8400   96.6300 h1      4  FDE        0.0458
    106 C1        107.6700  101.7000   98.9300 c3      4  FDE       -0.0377
    107 H5        108.0000  102.3200   99.7800 hc      4  FDE        0.0257
    108 H6        108.3700  100.8600   98.8600 hc      4  FDE        0.0257
    109 O1        107.4900  103.8600   97.8400 oh      4  FDE       -0.3921
    110 H7        108.9100  102.4800   97.3600 h1      4  FDE        0.0611
    111 C10       108.5800  100.5200   94.0200 c3      4  FDE        0.0639
    112 H8        107.3700  101.9800   93.0200 h1      4  FDE        0.0458
    113 H9        106.4300  100.8600   94.0100 h1      4  FDE        0.0458
    114 O2        108.5000   99.6100   92.9200 oh      4  FDE       -0.3921
    115 C2        109.9100  101.2900   93.9400 c3      4  FDE       -0.0377
    116 H10       108.5700   99.9300   94.9500 h1      4  FDE        0.0611
    117 H11       109.9400  101.9300   93.0500 hc      4  FDE        0.0257
    118 H12       110.7600  100.6000   93.9000 hc      4  FDE        0.0257
    119 H13       110.0400  101.9300   94.8200 hc      4  FDE        0.0257
    120 H14       108.5500  100.1400   92.1000 ho      4  FDE        0.2105
    121 H15       108.1000  104.2300   98.5000 ho      4  FDE        0.2105
    122 H16       106.5100  107.8600   96.2400 h4      4  FDE        0.0902
    123 H17       109.1100  107.3200   95.6000 ha      4  FDE        0.0645
    124 H18       109.0900  104.7400   94.7100 ha      4  FDE        0.0648
    125 O         104.4000   98.1900  105.8500 os      5  FDE       -0.3212
    126 C         103.1000   98.6200  105.8200 cc      5  FDE        0.0455
    127 C3        102.7300   99.1900  104.6400 cd      5  FDE       -0.0364
    128 C4        104.8300   98.5400  104.6000 cc      5  FDE        0.0725
    129 C5        103.8800   99.1400  103.8100 cd      5  FDE       -0.0322
    130 C6        106.2300   98.1800  104.1500 c3      5  FDE        0.0457
    131 N         106.7300   99.0800  103.0800 n3      5  FDE       -0.2919
    132 H         106.2000   97.1500  103.7900 h1      5  FDE        0.0503
    133 H1        106.9000   98.2000  105.0100 h1      5  FDE        0.0503
    134 C7        107.1300   98.3500  101.8500 c3      5  FDE        0.0245
    135 C8        107.6400  100.1600  103.5400 c3      5  FDE        0.0245
    136 C9        106.9800  101.1500  104.5300 c3      5  FDE        0.0639
    137 H2        107.9900  100.7400  102.6800 h1      5  FDE        0.0458
    138 H3        108.5400   99.7200  104.0100 h1      5  FDE        0.0458
    139 C1        107.6200  102.5500  104.4400 c3      5  FDE       -0.0377
    140 H4        108.6900  102.5100  104.6800 hc      5  FDE        0.0257
    141 H5        107.1400  103.2500  105.1400 hc      5  FDE        0.0257
    142 H6        107.5200  102.9600  103.4300 hc      5  FDE        0.0257
    143 O1        107.1000  100.6800  105.8700 oh      5  FDE       -0.3921
    144 H7        105.9200  101.2600  104.2600 h1      5  FDE        0.0611
    145 C10       107.3500   99.2500  100.6100 c3      5  FDE        0.0639
    146 H8        106.3500   97.6300  101.6000 h1      5  FDE        0.0458
    147 H9        108.0500   97.7900  102.0500 h1      5  FDE        0.0458
    148 O2        107.4800   98.4200   99.4500 oh      5  FDE       -0.3921
    149 C2        106.2000  100.2800  100.4100 c3      5  FDE       -0.0377
    150 H10       108.2900   99.8000  100.7600 h1      5  FDE        0.0611
    151 H11       105.2500   99.7300  100.3700 hc      5  FDE        0.0257
    152 H13       106.1600  100.9200  101.2900 hc      5  FDE        0.0257
    153 H14       106.6100   98.0200   99.2800 ho      5  FDE        0.2105
    154 H15       106.5000  101.2100  106.4200 ho      5  FDE        0.2105
    155 H16       102.5200   98.4500  106.7200 h4      5  FDE        0.0902
    156 H17       101.7600   99.5900  104.3700 ha      5  FDE        0.0645
    157 H18       103.9800   99.4800  102.7900 ha      5  FDE        0.0648
@<TRIPOS>BOND
     1     1     2    1
     2     2     3    1
     3     2     4    1
     4     2     5    1
     5     3     6    1
     6     3     7    2
     7     6     8    1
     8     8     9    2
     9     7     9    1
    10     8    10    1
    11    10    11    1
    12    10    12    1
    13    10    13    1
    14    11    14    2
    15    14    15    1
    16    11    16    1
    17    16    17    1
    18    15    17    2
    19    17    18    1
    20    18    19    1
    21    18    20    1
    22    18    21    1
    23     7    22    1
    24     9    23    1
    25    14    24    1
    26    15    25    1
    27    26    27    1
    28    27    28    2
    29    26    29    1
    30    29    30    2
    31    28    30    1
    32    29    31    1
    33    31    32    1
    34    31    33    1
    35    31    34    1
    36    32    35    1
    37    32    36    1
    38    36    37    1
    39    36    38    1
    40    36    39    1
    41    37    40    1
    42    40    41    1
    43    40    42    1
    44    40    43    1
    45    37    44    1
    46    37    45    1
    47    35    46    1
    48    35    47    1
    49    35    48    1
    50    46    49    1
    51    46    50    1
    52    46    51    1
    53    50    52    1
    54    50    53    1
    55    49    54    1
    56    44    55    1
    57    27    56    1
    58    28    57    1
    59    30    58    1
    60     1    50    1
    61    59    60    1
    62    60    61    2
    63    59    62    1
    64    62    63    2
    65    61    63    1
    66    62    64    1
    67    64    65    1
    68    64    66    1
    69    64    67    1
    70    65    68    1
    71    65    69    1
    72    69    70    1
    73    69    71    1
    74    69    72    1
    75    70    73    1
    76    73    74    1
    77    73    75    1
    78    73    76    1
    79    70    77    1
    80    70    78    1
    81    68    79    1
    82    68    80    1
    83    68    81    1
    84    79    82    1
    85    79    83    1
    86    79    84    1
    87    83    85    1
    88    83    86    1
    89    82    87    1
    90    77    88    1
    91    60    89    1
    92    61    90    1
    93    63    91    1
    94     1    83    1
    95    92    93    1
    96    93    94    2
    97    92    95    1
    98    95    96    2
    99    94    96    1
   100    95    97    1
   101    97    98    1
   102    97    99    1
   103    97   100    1
   104    98   101    1
   105    98   102    1
   106   102   103    1
   107   102   104    1
   108   102   105    1
   109   103   106    1
   110   106   107    1
   111   106   108    1
   112   103   109    1
   113   103   110    1
   114   101   111    1
   115   101   112    1
   116   101   113    1
   117   111   114    1
   118   111   115    1
   119   111   116    1
   120   115   117    1
   121   115   118    1
   122   115   119    1
   123   114   120    1
   124   109   121    1
   125    93   122    1
   126    94   123    1
   127    96   124    1
   128    19   106    1
   129   125   126    1
   130   126   127    2
   131   125   128    1
   132   128   129    2
   133   127   129    1
   134   128   130    1
   135   130   131    1
   136   130   132    1
   137   130   133    1
   138   131   134    1
   139   131   135    1
   140   135   136    1
   141   135   137    1
   142   135   138    1
   143   136   139    1
   144   139   140    1
   145   139   141    1
   146   139   142    1
   147   136   143    1
   148   136   144    1
   149   134   145    1
   150   134   146    1
   151   134   147    1
   152   145   148    1
   153   145   149    1
   154   145   150    1
   155   149   151    1
   156   149   152    1
   157   148   153    1
   158   143   154    1
   159   126   155    1
   160   127   156    1
   161   129   157    1
   162    19   149    1
