@<TRIPOS>MOLECULE
DFA+FDE+FDE+FDE+FDE
   157   162  1  0  0
SMALL
gas

@<TRIPOS>ATOM
      1 N1         94.8600   98.7300  100.1500 n3      1  DFA       -0.3248
      2 C          96.0900   99.5600  100.1700 c3      1  DFA        0.0403
      3 C1         97.3800   98.8600  100.5300 cc      1  DFA        0.0725
      4 H          95.9700  100.3400  100.9300 h1      1  DFA        0.0498
      5 H1         96.2100  100.0600   99.2100 h1      1  DFA        0.0498
      6 O          98.5000   99.6300  100.7000 os      1  DFA       -0.3174
      7 C2         97.5300   97.5400  100.8900 cd      1  DFA       -0.0319
      8 C3         99.3800   98.7100  101.2000 cc      1  DFA        0.0654
      9 C4         98.8700   97.4400  101.3300 cd      1  DFA       -0.0327
     10 C5        100.6900   99.1500  101.8000 c3      1  DFA        0.0418
     11 C6        101.8600   99.1200  100.8500 cc      1  DFA        0.0654
     12 H2        100.9300   98.5400  102.6700 hc      1  DFA        0.0409
     13 H3        100.5800  100.1700  102.1800 hc      1  DFA        0.0409
     14 C7        102.2100   98.0400  100.0700 cd      1  DFA       -0.0327
     15 C8        103.4700   98.3900   99.5200 cd      1  DFA       -0.0319
     16 O1        102.7700  100.1400  100.8500 os      1  DFA       -0.3174
     17 C9        103.7400   99.6300  100.0400 cc      1  DFA        0.0725
     18 C10       105.0100  100.4100   99.8300 c3      1  DFA        0.0403
     19 N2        106.2700   99.6500  100.1100 n3      1  DFA       -0.3248
     20 H4        104.9700  101.3100  100.4400 h1      1  DFA        0.0498
     21 H5        105.0000  100.7400   98.7800 h1      1  DFA        0.0498
     22 H10        96.7700   96.7700  100.9100 ha      1  DFA        0.0648
     23 H11        99.3500   96.5700  101.7700 ha      1  DFA        0.0648
     24 H12       101.6800   97.1000   99.9500 ha      1  DFA        0.0648
     25 H13       104.1000   97.7900   98.8800 ha      1  DFA        0.0648
     26 O          89.5700   95.5300   98.6800 os      2  FDE       -0.3212
     27 C          89.3400   95.3100   97.3400 cc      2  FDE        0.0455
     28 C3         90.3200   94.5600   96.7300 cd      2  FDE       -0.0364
     29 C4         90.7600   94.8800   98.8600 cc      2  FDE        0.0725
     30 C5         91.2600   94.2600   97.7400 cd      2  FDE       -0.0322
     31 C6         91.3800   94.8100  100.2400 c3      2  FDE        0.0457
     32 N          92.8600   94.6800  100.2200 n3      2  FDE       -0.2919
     33 H          90.9200   93.9400  100.7400 h1      2  FDE        0.0503
     34 H1         91.0800   95.6900  100.8100 h1      2  FDE        0.0503
     35 C7         93.3400   93.6600  101.1900 c3      2  FDE        0.0245
     36 C8         93.5900   95.9700  100.2900 c3      2  FDE        0.0245
     37 C9         93.6300   96.7700   98.9600 c3      2  FDE        0.0639
     38 H2         94.6300   95.7900  100.5700 h1      2  FDE        0.0458
     39 H3         93.1600   96.6000  101.0900 h1      2  FDE        0.0458
     40 C1         94.7800   97.8200   98.9600 c3      2  FDE       -0.0377
     41 H5         94.7100   98.4100   98.0400 hc      2  FDE        0.0257
     42 H6         95.7200   97.2700   98.8800 hc      2  FDE        0.0257
     43 O1         92.3800   97.3900   98.6600 oh      2  FDE       -0.3921
     44 H7         93.8600   96.0500   98.1600 h1      2  FDE        0.0611
     45 C10        94.7600   93.1300  100.9000 c3      2  FDE        0.0639
     46 H8         92.6600   92.8000  101.1800 h1      2  FDE        0.0458
     47 H9         93.3100   94.0800  102.2100 h1      2  FDE        0.0458
     48 O2         95.1100   92.1500  101.8700 oh      2  FDE       -0.3921
     49 C2         94.8800   92.5100   99.4900 c3      2  FDE       -0.0377
     50 H10        95.4800   93.9600  100.9700 h1      2  FDE        0.0611
     51 H11        94.1500   91.7000   99.3600 hc      2  FDE        0.0257
     52 H12        95.8800   92.0900   99.3400 hc      2  FDE        0.0257
     53 H13        94.7100   93.2600   98.7100 hc      2  FDE        0.0257
     54 H14        94.5000   91.4000  101.7700 ho      2  FDE        0.2105
     55 H15        92.3600   97.5700   97.7000 ho      2  FDE        0.2105
     56 H16        88.4400   95.7400   96.9300 h4      2  FDE        0.0902
     57 H17        90.3600   94.2600   95.6900 ha      2  FDE        0.0645
     58 H18        92.1600   93.6800   97.6500 ha      2  FDE        0.0648
     59 O          92.4200  102.8700   95.9900 os      3  FDE       -0.3212
     60 C          91.1300  102.5500   95.6500 cc      3  FDE        0.0455
     61 C3         90.2600  102.6000   96.7100 cd      3  FDE       -0.0364
     62 C4         92.3100  103.0900   97.3300 cc      3  FDE        0.0725
     63 C5         91.0400  102.9600   97.8300 cd      3  FDE       -0.0322
     64 C6         93.5200  103.5200   98.1300 c3      3  FDE        0.0457
     65 N          93.3900  103.2900   99.5900 n3      3  FDE       -0.2919
     66 H          93.6700  104.5800   97.9200 h1      3  FDE        0.0503
     67 H1         94.4100  103.0000   97.7400 h1      3  FDE        0.0503
     68 C7         93.8600  104.4600  100.3700 c3      3  FDE        0.0245
     69 C8         94.0000  102.0000  100.0500 c3      3  FDE        0.0245
     70 C9         93.2100  100.7200   99.6700 c3      3  FDE        0.0639
     71 H2         94.0700  102.0100  101.1400 h1      3  FDE        0.0458
     72 H3         95.0200  101.9400   99.6600 h1      3  FDE        0.0458
     73 C1         93.6300   99.4800  100.5400 c3      3  FDE       -0.0377
     74 H5         92.7800   98.8000  100.6000 hc      3  FDE        0.0257
     75 H6         93.7700   99.8400  101.5700 hc      3  FDE        0.0257
     76 O1         93.3200  100.4200   98.2800 oh      3  FDE       -0.3921
     77 H7         92.1600  100.9200   99.9100 h1      3  FDE        0.0611
     78 C10        93.3500  104.5000  101.8300 c3      3  FDE        0.0639
     79 H8         93.5100  105.3800   99.8800 h1      3  FDE        0.0458
     80 H9         94.9600  104.4900  100.3700 h1      3  FDE        0.0458
     81 O2         93.8700  105.6600  102.4700 oh      3  FDE       -0.3921
     82 C2         91.8100  104.5200  101.9200 c3      3  FDE       -0.0377
     83 H10        93.7100  103.6200  102.3700 h1      3  FDE        0.0611
     84 H11        91.4000  105.3700  101.3500 hc      3  FDE        0.0257
     85 H12        91.4800  104.6100  102.9600 hc      3  FDE        0.0257
     86 H13        91.3800  103.6000  101.5000 hc      3  FDE        0.0257
     87 H14        93.5200  106.4400  102.0000 ho      3  FDE        0.2105
     88 H15        92.7700   99.6400   98.1200 ho      3  FDE        0.2105
     89 H16        90.9500  102.3200   94.6100 h4      3  FDE        0.0902
     90 H17        89.1900  102.4000   96.6900 ha      3  FDE        0.0645
     91 H18        90.7000  103.1100   98.8500 ha      3  FDE        0.0648
     92 O         106.1900  104.8000   96.3600 os      4  FDE       -0.3212
     93 C         107.0700  105.8100   96.6400 cc      4  FDE        0.0455
     94 C3        108.3900  105.4300   96.5700 cd      4  FDE       -0.0364
     95 C4        107.0400  103.7500   96.1200 cc      4  FDE        0.0725
     96 C5        108.3700  104.0600   96.2100 cd      4  FDE       -0.0322
     97 C6        106.4800  102.3900   95.7900 c3      4  FDE        0.0457
     98 N         107.4600  101.2900   95.9600 n3      4  FDE       -0.2919
     99 H         106.1100  102.4300   94.7600 h1      4  FDE        0.0503
    100 H1        105.6000  102.2100   96.4200 h1      4  FDE        0.0503
    101 C7        107.6100  100.4800   94.7200 c3      4  FDE        0.0245
    102 C8        107.2700  100.4800   97.2000 c3      4  FDE        0.0245
    103 C9        107.6600  101.2000   98.5200 c3      4  FDE        0.0639
    104 H2        107.9000   99.5900   97.1500 h1      4  FDE        0.0458
    105 H3        106.2400  100.1200   97.2400 h1      4  FDE        0.0458
    106 C1        107.5800  100.2800   99.7600 c3      4  FDE       -0.0377
    107 H5        107.9500  100.8600  100.6100 hc      4  FDE        0.0257
    108 H6        108.3100   99.4700   99.6200 hc      4  FDE        0.0257
    109 O1        106.9100  102.4000   98.7700 oh      4  FDE       -0.3921
    110 H7        108.7100  101.4900   98.4100 h1      4  FDE        0.0611
    111 C10       108.9000   99.6400   94.6500 c3      4  FDE        0.0639
    112 H8        107.6200  101.1600   93.8500 h1      4  FDE        0.0458
    113 H9        106.7400   99.8300   94.6000 h1      4  FDE        0.0458
    114 O2        108.9400   98.9500   93.4000 oh      4  FDE       -0.3921
    115 C2        110.1800  100.5000   94.7900 c3      4  FDE       -0.0377
    116 H10       108.9000   98.8900   95.4600 h1      4  FDE        0.0611
    117 H11       110.1900  101.3000   94.0400 hc      4  FDE        0.0257
    118 H12       111.0700   99.8800   94.6600 hc      4  FDE        0.0257
    119 H13       110.2300  100.9600   95.7800 hc      4  FDE        0.0257
    120 H14       108.9700   99.6200   92.7000 ho      4  FDE        0.2105
    121 H15       107.3400  102.8700   99.5000 ho      4  FDE        0.2105
    122 H16       106.6400  106.7700   96.8900 h4      4  FDE        0.0902
    123 H17       109.2600  106.0500   96.7500 ha      4  FDE        0.0645
    124 H18       109.2200  103.4100   96.0700 ha      4  FDE        0.0648
    125 O         102.4900  102.1200  104.3900 os      5  FDE       -0.3212
    126 C         101.8700  101.3900  105.3700 cc      5  FDE        0.0455
    127 C3        102.7400  100.8100  106.2600 cd      5  FDE       -0.0364
    128 C4        103.8100  101.9400  104.7100 cc      5  FDE        0.0725
    129 C5        104.0300  101.1800  105.8200 cd      5  FDE       -0.0322
    130 C6        104.8800  102.5600  103.8400 c3      5  FDE        0.0457
    131 N         106.2200  101.9200  103.9900 n3      5  FDE       -0.2919
    132 H         104.9300  103.6200  104.0900 h1      5  FDE        0.0503
    133 H1        104.5400  102.5000  102.8000 h1      5  FDE        0.0503
    134 C7        107.2400  102.9100  104.4200 c3      5  FDE        0.0245
    135 C8        106.6200  101.1100  102.8100 c3      5  FDE        0.0245
    136 C9        106.0100   99.6800  102.7200 c3      5  FDE        0.0639
    137 H2        107.7000  100.9600  102.8100 h1      5  FDE        0.0458
    138 H3        106.3900  101.6800  101.9100 h1      5  FDE        0.0458
    139 C1        106.3200   98.9000  101.4000 c3      5  FDE       -0.0377
    140 H5        105.6300   98.0600  101.3500 hc      5  FDE        0.0257
    141 H6        107.3200   98.4600  101.5100 hc      5  FDE        0.0257
    142 O1        104.6100   99.6400  102.9800 oh      5  FDE       -0.3921
    143 H7        106.4700   99.1100  103.5300 h1      5  FDE        0.0611
    144 C10       108.5500  102.2900  104.9700 c3      5  FDE        0.0639
    145 H8        106.8100  103.5300  105.2200 h1      5  FDE        0.0458
    146 H9        107.4800  103.5800  103.5800 h1      5  FDE        0.0458
    147 O2        109.4400  103.3400  105.3400 oh      5  FDE       -0.3921
    148 C2        108.3000  101.3800  106.2000 c3      5  FDE       -0.0377
    149 H10       109.0300  101.6900  104.1900 h1      5  FDE        0.0611
    150 H11       107.7800  101.9300  107.0000 hc      5  FDE        0.0257
    151 H12       109.2500  101.0000  106.5900 hc      5  FDE        0.0257
    152 H13       107.6800  100.5200  105.9200 hc      5  FDE        0.0257
    153 H14       109.0200  103.8400  106.0700 ho      5  FDE        0.2105
    154 H15       104.1400  100.0800  102.2300 ho      5  FDE        0.2105
    155 H16       100.7900  101.3600  105.3300 h4      5  FDE        0.0902
    156 H17       102.4900  100.1800  107.1100 ha      5  FDE        0.0645
    157 H18       104.9800  100.8900  106.2600 ha      5  FDE        0.0648
@<TRIPOS>BOND
     1     1     2    1
     2     2     3    1
     3     2     4    1
     4     2     5    1
     5     3     6    1
     6     3     7    2
     7     6     8    1
     8     8     9    2
     9     7     9    1
    10     8    10    1
    11    10    11    1
    12    10    12    1
    13    10    13    1
    14    11    14    2
    15    14    15    1
    16    11    16    1
    17    16    17    1
    18    15    17    2
    19    17    18    1
    20    18    19    1
    21    18    20    1
    22    18    21    1
    23     7    22    1
    24     9    23    1
    25    14    24    1
    26    15    25    1
    27    26    27    1
    28    27    28    2
    29    26    29    1
    30    29    30    2
    31    28    30    1
    32    29    31    1
    33    31    32    1
    34    31    33    1
    35    31    34    1
    36    32    35    1
    37    32    36    1
    38    36    37    1
    39    36    38    1
    40    36    39    1
    41    37    40    1
    42    40    41    1
    43    40    42    1
    44    37    43    1
    45    37    44    1
    46    35    45    1
    47    35    46    1
    48    35    47    1
    49    45    48    1
    50    45    49    1
    51    45    50    1
    52    49    51    1
    53    49    52    1
    54    49    53    1
    55    48    54    1
    56    43    55    1
    57    27    56    1
    58    28    57    1
    59    30    58    1
    60     1    40    1
    61    59    60    1
    62    60    61    2
    63    59    62    1
    64    62    63    2
    65    61    63    1
    66    62    64    1
    67    64    65    1
    68    64    66    1
    69    64    67    1
    70    65    68    1
    71    65    69    1
    72    69    70    1
    73    69    71    1
    74    69    72    1
    75    70    73    1
    76    73    74    1
    77    73    75    1
    78    70    76    1
    79    70    77    1
    80    68    78    1
    81    68    79    1
    82    68    80    1
    83    78    81    1
    84    78    82    1
    85    78    83    1
    86    82    84    1
    87    82    85    1
    88    82    86    1
    89    81    87    1
    90    76    88    1
    91    60    89    1
    92    61    90    1
    93    63    91    1
    94     1    73    1
    95    92    93    1
    96    93    94    2
    97    92    95    1
    98    95    96    2
    99    94    96    1
   100    95    97    1
   101    97    98    1
   102    97    99    1
   103    97   100    1
   104    98   101    1
   105    98   102    1
   106   102   103    1
   107   102   104    1
   108   102   105    1
   109   103   106    1
   110   106   107    1
   111   106   108    1
   112   103   109    1
   113   103   110    1
   114   101   111    1
   115   101   112    1
   116   101   113    1
   117   111   114    1
   118   111   115    1
   119   111   116    1
   120   115   117    1
   121   115   118    1
   122   115   119    1
   123   114   120    1
   124   109   121    1
   125    93   122    1
   126    94   123    1
   127    96   124    1
   128    19   106    1
   129   125   126    1
   130   126   127    2
   131   125   128    1
   132   128   129    2
   133   127   129    1
   134   128   130    1
   135   130   131    1
   136   130   132    1
   137   130   133    1
   138   131   134    1
   139   131   135    1
   140   135   136    1
   141   135   137    1
   142   135   138    1
   143   136   139    1
   144   139   140    1
   145   139   141    1
   146   136   142    1
   147   136   143    1
   148   134   144    1
   149   134   145    1
   150   134   146    1
   151   144   147    1
   152   144   148    1
   153   144   149    1
   154   148   150    1
   155   148   151    1
   156   148   152    1
   157   147   153    1
   158   142   154    1
   159   126   155    1
   160   127   156    1
   161   129   157    1
   162    19   139    1
