@<TRIPOS>MOLECULE
FDE
    30    34  1  0  0
SMALL
gas

@<TRIPOS>ATOM
      1 O           7.1820    7.5520    7.4520 os      1  FDE       -0.3212
      2 C           7.1090    7.5160    7.5630 cc      1  FDE        0.0455
      3 C3          7.1830    7.5060    7.6780 cd      1  FDE       -0.0364
      4 C4          7.3080    7.5630    7.5050 cc      1  FDE        0.0725
      5 C5          7.3160    7.5380    7.6400 cd      1  FDE       -0.0322
      6 C6          7.4240    7.6070    7.4190 c3      1  FDE        0.0457
      7 N           7.5540    7.5530    7.4630 n3      1  FDE       -0.2919
      8 H           7.4250    7.7170    7.4240 h1      1  FDE        0.0503
      9 H1          7.4040    7.5800    7.3150 h1      1  FDE        0.0503
     10 C7          7.6650    7.6500    7.4450 c3      1  FDE        0.0245
     11 C8          7.5860    7.4190    7.4080 c3      1  FDE        0.0245
     12 C9          7.4840    7.3090    7.4390 c3      1  FDE        0.0639
     13 H2          7.6820    7.3850    7.4480 h1      1  FDE        0.0458
     14 H3          7.5970    7.4260    7.2990 h1      1  FDE        0.0458
     15 C1          7.4890    7.1780    7.3660 c3      1  FDE       -0.0377
     16 H4          7.5650    7.1630    7.2880 hc      1  FDE        0.0257
     17 H6          7.4510    7.0880    7.4140 hc      1  FDE        0.0257
     18 O1          7.3900    7.2770    7.3350 oh      1  FDE       -0.3921
     19 H7          7.4440    7.3080    7.5410 h1      1  FDE        0.0611
     20 C10         7.7920    7.6140    7.5210 c3      1  FDE        0.0639
     21 H8          7.6320    7.7490    7.4800 h1      1  FDE        0.0458
     22 H9          7.6880    7.6600    7.3380 h1      1  FDE        0.0458
     23 O2          7.8610    7.7230    7.5850 oh      1  FDE       -0.3921
     24 C2          7.7970    7.6260    7.6710 c3      1  FDE       -0.0377
     25 H10         7.8570    7.5400    7.4730 h1      1  FDE        0.0611
     26 H11         7.7090    7.6630    7.7240 hc      1  FDE        0.0257
     27 H13         7.8650    7.5630    7.7270 hc      1  FDE        0.0257
     28 H16         7.0030    7.5000    7.5460 h4      1  FDE        0.0902
     29 H17         7.1480    7.4800    7.7770 ha      1  FDE        0.0645
     30 H18         7.4030    7.5420    7.7040 ha      1  FDE        0.0648
@<TRIPOS>BOND
     1     1     2    1
     2     2     3    2
     3     1     4    1
     4     4     5    2
     5     3     5    1
     6     4     6    1
     7     6     7    1
     8     6     8    1
     9     6     9    1
    10     7    10    1
    11     7    11    1
    12    11    12    1
    13    11    13    1
    14    11    14    1
    15    12    15    1
    16    15    16    1
    18    15    17    1
    19    12    18    1
    20    12    19    1
    21    10    20    1
    22    10    21    1
    23    10    22    1
    24    20    23    1
    25    20    24    1
    26    20    25    1
    27    24    26    1
    29    24    27    1
    32     2    28    1
    33     3    29    1
    34     5    30    1
    34    18    15    1
    35    23    24    1
