@<TRIPOS>MOLECULE
FDE
    30    32  1  0  0
SMALL
gas

@<TRIPOS>ATOM
      1 O          71.8200   75.5200   74.5200 os      1  FDE       -0.3212
      2 C          71.0900   75.1600   75.6300 cc      1  FDE        0.0455
      3 C3         71.8300   75.0600   76.7800 cd      1  FDE       -0.0364
      4 C4         73.0800   75.6300   75.0500 cc      1  FDE        0.0725
      5 C5         73.1600   75.3800   76.4000 cd      1  FDE       -0.0322
      6 C6         74.2400   76.0700   74.1900 c3      1  FDE        0.0457
      7 N          75.5400   75.5300   74.6300 n3      1  FDE       -0.2919
      8 H          74.2500   77.1700   74.2400 h1      1  FDE        0.0503
      9 H1         74.0400   75.8000   73.1500 h1      1  FDE        0.0503
     10 C7         76.6500   76.5000   74.4500 c3      1  FDE        0.0245
     11 C8         75.8600   74.1900   74.0800 c3      1  FDE        0.0245
     12 C9         74.8400   73.0900   74.3900 c3      1  FDE        0.0639
     13 H2         76.8200   73.8500   74.4800 h1      1  FDE        0.0458
     14 H3         75.9700   74.2600   72.9900 h1      1  FDE        0.0458
     15 C1         74.8900   71.7800   73.6600 c3      1  FDE       -0.0377
     16 H4         75.6500   71.6300   72.8800 hc      1  FDE        0.0257
     17 H6         74.5100   70.8800   74.1400 hc      1  FDE        0.0257
     18 O1         73.9000   72.7700   73.3500 oh      1  FDE       -0.3921
     19 H7         74.4400   73.0800   75.4100 h1      1  FDE        0.0611
     20 C10        77.9200   76.1400   75.2100 c3      1  FDE        0.0639
     21 H8         76.3200   77.4900   74.8000 h1      1  FDE        0.0458
     22 H9         76.8800   76.6000   73.3800 h1      1  FDE        0.0458
     23 O2         78.6100   77.2300   75.8500 oh      1  FDE       -0.3921
     24 C2         77.9700   76.2600   76.7100 c3      1  FDE       -0.0377
     25 H10        78.5700   75.4000   74.7300 h1      1  FDE        0.0611
     26 H11        77.0900   76.6300   77.2400 hc      1  FDE        0.0257
     27 H13        78.6500   75.6300   77.2700 hc      1  FDE        0.0257
     28 H16        70.0300   75.0100   75.4600 h4      1  FDE        0.0902
     29 H17        71.4800   74.8000   77.7700 ha      1  FDE        0.0645
     30 H18        74.0300   75.4200   77.0400 ha      1  FDE        0.0648
@<TRIPOS>BOND
     1     1     2    1
     2     2     3    2
     3     1     4    1
     4     4     5    2
     5     3     5    1
     6     4     6    1
     7     6     7    1
     8     6     8    1
     9     6     9    1
    10     7    10    1
    11     7    11    1
    12    11    12    1
    13    11    13    1
    14    11    14    1
    15    12    15    1
    16    15    16    1
    17    15    17    1
    18    12    18    1
    19    12    19    1
    20    10    20    1
    21    10    21    1
    22    10    22    1
    23    20    23    1
    24    20    24    1
    25    20    25    1
    26    24    26    1
    27    24    27    1
    28     2    28    1
    29     3    29    1
    30     5    30    1
    31    18    15    1
    32    23    24    1
