@<TRIPOS>MOLECULE
FDE+DFA
    61    63  1  0  0
SMALL
gas

@<TRIPOS>ATOM
      1 O          99.5800  103.2000  101.1000 os      1  FDE       -0.3212
      2 C          98.8900  102.8400  102.2200 cc      1  FDE        0.0455
      3 C3         99.6900  102.4800  103.2800 cd      1  FDE       -0.0364
      4 C4        100.8800  103.0200  101.5000 cc      1  FDE        0.0725
      5 C5        101.0200  102.6100  102.8000 cd      1  FDE       -0.0322
      6 C6        102.0200  103.3000  100.5500 c3      1  FDE        0.0457
      7 N         103.2000  102.4200  100.7800 n3      1  FDE       -0.2919
      8 H         102.3000  104.3500  100.7100 h1      1  FDE        0.0503
      9 H1        101.6800  103.2200   99.5200 h1      1  FDE        0.0503
     10 C7        104.4800  103.1500  100.6100 c3      1  FDE        0.0245
     11 C8        103.1700  101.1100  100.0600 c3      1  FDE        0.0245
     12 C9        101.9100  100.2500  100.3000 c3      1  FDE        0.0639
     13 H2        104.0300  100.5100  100.3800 h1      1  FDE        0.0458
     14 H3        103.2800  101.2700   98.9800 h1      1  FDE        0.0458
     15 C1        102.1800   98.7300  100.1200 c3      1  FDE       -0.0377
     16 H5        101.3100   98.1700  100.4900 hc      1  FDE        0.0257
     17 H6        103.0100   98.4600  100.7900 hc      1  FDE        0.0257
     18 O1        100.8500  100.6800   99.4500 oh      1  FDE       -0.3921
     19 H7        101.6000  100.3800  101.3400 h1      1  FDE        0.0611
     20 C10       105.7000  102.4500  101.2500 c3      1  FDE        0.0639
     21 H8        104.3900  104.1400  101.0800 h1      1  FDE        0.0458
     22 H9        104.6700  103.3200   99.5400 h1      1  FDE        0.0458
     23 O2        106.8600  103.2600  101.0600 oh      1  FDE       -0.3921
     24 C2        105.5100  102.1900  102.7600 c3      1  FDE       -0.0377
     25 H10       105.8700  101.4900  100.7500 h1      1  FDE        0.0611
     26 H11       105.2900  103.1200  103.2900 hc      1  FDE        0.0257
     27 H12       106.4200  101.7500  103.1900 hc      1  FDE        0.0257
     28 H13       104.6900  101.4900  102.9400 hc      1  FDE        0.0257
     29 H14       106.7100  104.1000  101.5300 ho      1  FDE        0.2105
     30 H15       100.1400  100.0000   99.4600 ho      1  FDE        0.2105
     31 H16        97.8100  102.8800  102.1500 h4      1  FDE        0.0902
     32 H17        99.3800  102.1600  104.2700 ha      1  FDE        0.0645
     33 H18       101.9400  102.4100  103.3400 ha      1  FDE        0.0648
     34 N1         91.3300   97.7500   98.8800 n3      2  DFA       -0.3248
     35 C          92.3100   98.5700   98.1500 c3      2  DFA        0.0403
     36 C1         93.7000   98.0400   98.3200 cc      2  DFA        0.0725
     37 H          92.2700   99.6000   98.5200 h1      2  DFA        0.0498
     38 H1         92.0500   98.5800   97.0800 h1      2  DFA        0.0498
     39 O          94.6300   98.7100   99.0700 os      2  DFA       -0.3174
     40 C2         94.1600   96.8700   97.7600 cd      2  DFA       -0.0319
     41 C3         95.7100   97.8900   98.9500 cc      2  DFA        0.0654
     42 C4         95.5000   96.7600   98.1900 cd      2  DFA       -0.0327
     43 C5         96.9800   98.2000   99.7100 c3      2  DFA        0.0418
     44 C6         98.2400   97.6800   99.0800 cc      2  DFA        0.0654
     45 H2         96.8900   97.8100  100.7300 hc      2  DFA        0.0409
     46 H3         97.0600   99.2900   99.8300 hc      2  DFA        0.0409
     47 C7         98.7000   96.4000   99.1900 cd      2  DFA       -0.0327
     48 C8         99.9900   96.4100   98.6000 cd      2  DFA       -0.0319
     49 O1         99.1100   98.5500   98.4700 os      2  DFA       -0.3174
     50 C9        100.1700   97.7200   98.2100 cc      2  DFA        0.0725
     51 C10       101.4800   98.2900   97.7200 c3      2  DFA        0.0403
     52 N2        102.5300   98.2700   98.7600 n3      2  DFA       -0.3248
     53 H4        101.3100   99.3100   97.3800 h1      2  DFA        0.0498
     54 H5        101.8200   97.7100   96.8500 h1      2  DFA        0.0498
     55 H6         90.3900   98.1200   98.7300 hn      2  DFA        0.1188
     56 H7         91.3300   96.8000   98.5100 hn      2  DFA        0.1188
     57 H9        103.3600   98.7700   98.4200 hn      2  DFA        0.1188
     58 H10        93.6100   96.1700   97.1400 ha      2  DFA        0.0648
     59 H11        96.1900   95.9600   97.9800 ha      2  DFA        0.0648
     60 H12        98.2100   95.5600   99.6800 ha      2  DFA        0.0648
     61 H13       100.7000   95.6000   98.5500 ha      2  DFA        0.0648
@<TRIPOS>BOND
     1     1     2    1
     2     2     3    2
     3     1     4    1
     4     4     5    2
     5     3     5    1
     6     4     6    1
     7     6     7    1
     8     6     8    1
     9     6     9    1
    10     7    10    1
    11     7    11    1
    12    11    12    1
    13    11    13    1
    14    11    14    1
    15    12    15    1
    16    15    16    1
    17    15    17    1
    18    12    18    1
    19    12    19    1
    20    10    20    1
    21    10    21    1
    22    10    22    1
    23    20    23    1
    24    20    24    1
    25    20    25    1
    26    24    26    1
    27    24    27    1
    28    24    28    1
    29    23    29    1
    30    18    30    1
    31     2    31    1
    32     3    32    1
    33     5    33    1
    34    34    35    1
    35    35    36    1
    36    35    37    1
    37    35    38    1
    38    36    39    1
    39    36    40    2
    40    39    41    1
    41    41    42    2
    42    40    42    1
    43    41    43    1
    44    43    44    1
    45    43    45    1
    46    43    46    1
    47    44    47    2
    48    47    48    1
    49    44    49    1
    50    49    50    1
    51    48    50    2
    52    50    51    1
    53    51    52    1
    54    51    53    1
    55    51    54    1
    56    34    55    1
    57    34    56    1
    58    52    57    1
    59    40    58    1
    60    42    59    1
    61    47    60    1
    62    48    61    1
    63    15    52    1
