@<TRIPOS>MOLECULE
FDE+DFA+DFA
    88    92  1  0  0
SMALL
gas

@<TRIPOS>ATOM
      1 O          97.2300  104.3100  101.0000 os      1  FDE       -0.3212
      2 C          96.6000  103.9800  102.1800 cc      1  FDE        0.0455
      3 C3         97.4600  103.5600  103.1600 cd      1  FDE       -0.0364
      4 C4         98.5400  104.0300  101.3000 cc      1  FDE        0.0725
      5 C5         98.7500  103.6000  102.5800 cd      1  FDE       -0.0322
      6 C6         99.6000  104.2100  100.2500 c3      1  FDE        0.0457
      7 N         100.8800  103.5100  100.5600 n3      1  FDE       -0.2919
      8 H          99.7800  105.2800  100.1300 h1      1  FDE        0.0503
      9 H1         99.2100  103.8600   99.2800 h1      1  FDE        0.0503
     10 C7        102.0400  104.4200  100.5800 c3      1  FDE        0.0245
     11 C8        101.0600  102.2100   99.8600 c3      1  FDE        0.0245
     12 C9        100.2500  101.0500  100.5000 c3      1  FDE        0.0639
     13 H2        102.1200  101.9100   99.9100 h1      1  FDE        0.0458
     14 H3        100.8100  102.3100   98.8000 h1      1  FDE        0.0458
     15 C1        100.7000   99.6500  100.0100 c3      1  FDE       -0.0377
     16 H5         99.9900   98.9100  100.4100 hc      1  FDE        0.0257
     17 H6        101.6700   99.4400  100.4800 hc      1  FDE        0.0257
     18 O1         98.8500  101.2100  100.3300 oh      1  FDE       -0.3921
     19 H7        100.4600  101.0800  101.5800 h1      1  FDE        0.0611
     20 C10       103.3100  103.8500  101.2700 c3      1  FDE        0.0639
     21 H8        101.7600  105.3300  101.1200 h1      1  FDE        0.0458
     22 H9        102.3000  104.7100   99.5500 h1      1  FDE        0.0458
     23 O2        104.1900  104.9300  101.5600 oh      1  FDE       -0.3921
     24 C2        102.9700  103.0700  102.5800 c3      1  FDE       -0.0377
     25 H10       103.8000  103.1600  100.5800 h1      1  FDE        0.0611
     26 H11       102.2700  103.6600  103.1800 hc      1  FDE        0.0257
     27 H13       102.4600  102.1400  102.3100 hc      1  FDE        0.0257
     28 H14       103.7600  105.5000  102.2100 ho      1  FDE        0.2105
     29 H15        98.6000  100.9200   99.4300 ho      1  FDE        0.2105
     30 H16        95.5300  104.1000  102.1900 h4      1  FDE        0.0902
     31 H17        97.2000  103.2500  104.1700 ha      1  FDE        0.0645
     32 H18        99.6900  103.3200  103.0500 ha      1  FDE        0.0648
     33 N1         89.5300   98.7700   98.7800 n3      2  DFA       -0.3248
     34 C          90.5500   99.4800   98.0000 c3      2  DFA        0.0403
     35 C1         91.9400   98.9600   98.2800 cc      2  DFA        0.0725
     36 H          90.5200  100.5500   98.2400 h1      2  DFA        0.0498
     37 H1         90.3400   99.3700   96.9200 h1      2  DFA        0.0498
     38 O          92.8800   99.7500   98.8700 os      2  DFA       -0.3174
     39 C2         92.3500   97.6800   98.0000 cd      2  DFA       -0.0319
     40 C3         93.9400   98.8900   98.9500 cc      2  DFA        0.0654
     41 C4         93.6900   97.6300   98.4600 cd      2  DFA       -0.0327
     42 C5         95.2100   99.3000   99.6500 c3      2  DFA        0.0418
     43 C6         96.4800   98.8600   98.9700 cc      2  DFA        0.0654
     44 H2         95.1900   98.9200  100.6800 hc      2  DFA        0.0409
     45 H3         95.2200  100.4000   99.7500 hc      2  DFA        0.0409
     46 C7         97.0200   97.6100   99.0900 cd      2  DFA       -0.0327
     47 C8         98.3200   97.7200   98.5200 cd      2  DFA       -0.0319
     48 O1         97.2900   99.7800   98.3600 os      2  DFA       -0.3174
     49 C9         98.4100   99.0300   98.1400 cc      2  DFA        0.0725
     50 C10        99.6800   99.7100   97.6700 c3      2  DFA        0.0403
     51 N2        100.8500   99.4700   98.5500 n3      2  DFA       -0.3248
     52 H4         99.4800  100.7900   97.6100 h1      2  DFA        0.0498
     53 H5         99.9100   99.3700   96.6600 h1      2  DFA        0.0498
     54 H6         88.6100   99.1400   98.5500 hn      2  DFA        0.1188
     55 H7         89.5300   97.7800   98.5300 hn      2  DFA        0.1188
     56 H9        101.6300  100.0400   98.2100 hn      2  DFA        0.1188
     57 H10        91.7800   96.8800   97.5500 ha      2  DFA        0.0648
     58 H11        94.3500   96.7700   98.4400 ha      2  DFA        0.0648
     59 H12        96.6000   96.7400   99.5900 ha      2  DFA        0.0648
     60 H13        99.0900   96.9600   98.4900 ha      2  DFA        0.0648
     61 N1        104.1400  102.7300  103.4100 n3      3  DFA       -0.3248
     62 C         105.2500  102.0200  102.7400 c3      3  DFA        0.0403
     63 C1        104.8400  100.7200  102.0800 cc      3  DFA        0.0725
     64 H         106.0300  101.8000  103.4800 h1      3  DFA        0.0498
     65 H1        105.7100  102.6700  101.9900 h1      3  DFA        0.0498
     66 O         104.7500  100.6400  100.7200 os      3  DFA       -0.3174
     67 C2        104.7100   99.5300  102.7400 cd      3  DFA       -0.0319
     68 C3        104.5900   99.2900  100.5500 cc      3  DFA        0.0654
     69 C4        104.5500   98.5700  101.7100 cd      3  DFA       -0.0327
     70 C5        104.6000   98.7200   99.1500 c3      3  DFA        0.0418
     71 C6        104.2300   97.2600   99.0400 cc      3  DFA        0.0654
     72 H2        105.6000   98.8700   98.7200 hc      3  DFA        0.0409
     73 H3        103.9200   99.3100   98.5200 hc      3  DFA        0.0409
     74 C7        103.0100   96.7400   99.3800 cd      3  DFA       -0.0327
     75 C8        103.0700   95.3800   98.9700 cd      3  DFA       -0.0319
     76 O1        105.0900   96.3700   98.4500 os      3  DFA       -0.3174
     77 C9        104.3300   95.2400   98.4400 cc      3  DFA        0.0725
     78 C10       104.8400   93.9800   97.7800 c3      3  DFA        0.0403
     79 N2        104.4500   92.7700   98.5300 n3      3  DFA       -0.3248
     80 H4        105.9300   94.0300   97.7100 h1      3  DFA        0.0498
     81 H5        104.4400   93.9200   96.7600 h1      3  DFA        0.0498
     82 H6        104.5200  103.5900  103.8100 hn      3  DFA        0.1188
     83 H8        104.8700   92.8000   99.4600 hn      3  DFA        0.1188
     84 H9        104.8400   91.9500   98.0600 hn      3  DFA        0.1188
     85 H10       104.8000   99.3500  103.8100 ha      3  DFA        0.0648
     86 H11       104.4700   97.4900  101.8300 ha      3  DFA        0.0648
     87 H12       102.1600   97.2500   99.8200 ha      3  DFA        0.0648
     88 H13       102.2900   94.6400   99.0400 ha      3  DFA        0.0648
@<TRIPOS>BOND
     1     1     2    1
     2     2     3    2
     3     1     4    1
     4     4     5    2
     5     3     5    1
     6     4     6    1
     7     6     7    1
     8     6     8    1
     9     6     9    1
    10     7    10    1
    11     7    11    1
    12    11    12    1
    13    11    13    1
    14    11    14    1
    15    12    15    1
    16    15    16    1
    17    15    17    1
    18    12    18    1
    19    12    19    1
    20    10    20    1
    21    10    21    1
    22    10    22    1
    23    20    23    1
    24    20    24    1
    25    20    25    1
    26    24    26    1
    27    24    27    1
    28    23    28    1
    29    18    29    1
    30     2    30    1
    31     3    31    1
    32     5    32    1
    33    33    34    1
    34    34    35    1
    35    34    36    1
    36    34    37    1
    37    35    38    1
    38    35    39    2
    39    38    40    1
    40    40    41    2
    41    39    41    1
    42    40    42    1
    43    42    43    1
    44    42    44    1
    45    42    45    1
    46    43    46    2
    47    46    47    1
    48    43    48    1
    49    48    49    1
    50    47    49    2
    51    49    50    1
    52    50    51    1
    53    50    52    1
    54    50    53    1
    55    33    54    1
    56    33    55    1
    57    51    56    1
    58    39    57    1
    59    41    58    1
    60    46    59    1
    61    47    60    1
    62    15    51    1
    63    61    62    1
    64    62    63    1
    65    62    64    1
    66    62    65    1
    67    63    66    1
    68    63    67    2
    69    66    68    1
    70    68    69    2
    71    67    69    1
    72    68    70    1
    73    70    71    1
    74    70    72    1
    75    70    73    1
    76    71    74    2
    77    74    75    1
    78    71    76    1
    79    76    77    1
    80    75    77    2
    81    77    78    1
    82    78    79    1
    83    78    80    1
    84    78    81    1
    85    61    82    1
    86    79    83    1
    87    79    84    1
    88    67    85    1
    89    69    86    1
    90    74    87    1
    91    75    88    1
    92    24    61    1
