@<TRIPOS>MOLECULE
FDE+DFA
    61    63  1  0  0
SMALL
gas

@<TRIPOS>ATOM
      1 O          94.7500  102.6900  100.0000 os      1  FDE       -0.3212
      2 C          94.1200  102.2300  101.1300 cc      1  FDE        0.0455
      3 C3         94.9300  102.1300  102.2200 cd      1  FDE       -0.0364
      4 C4         96.0300  102.8600  100.4600 cc      1  FDE        0.0725
      5 C5         96.2100  102.5600  101.7800 cd      1  FDE       -0.0322
      6 C6         97.1000  103.4200   99.5500 c3      1  FDE        0.0457
      7 N          98.4500  102.8900   99.8800 n3      1  FDE       -0.2919
      8 H          97.0900  104.5100   99.6700 h1      1  FDE        0.0503
      9 H1         96.8500  103.2100   98.5100 h1      1  FDE        0.0503
     10 C7         99.4700  103.9500  100.0200 c3      1  FDE        0.0245
     11 C8         98.8800  101.7100   99.0800 c3      1  FDE        0.0245
     12 C9         97.9300  100.4900   99.2100 c3      1  FDE        0.0639
     13 H2         99.8700  101.3900   99.4100 h1      1  FDE        0.0458
     14 H3         98.9700  101.9900   98.0200 h1      1  FDE        0.0458
     15 C1         98.7000   99.1700   99.0100 c3      1  FDE       -0.0377
     16 H4         99.1800   99.1300   98.0200 hc      1  FDE        0.0257
     17 H5         98.0300   98.3100   99.1000 hc      1  FDE        0.0257
     18 H6         99.4800   99.0700   99.7700 hc      1  FDE        0.0257
     19 O1         96.8900  100.5600   98.2300 oh      1  FDE       -0.3921
     20 H7         97.5000  100.4800  100.2200 h1      1  FDE        0.0611
     21 C10       100.7800  103.5000  100.7200 c3      1  FDE        0.0639
     22 H8         99.0500  104.7700  100.6200 h1      1  FDE        0.0458
     23 H9         99.7200  104.3600   99.0300 h1      1  FDE        0.0458
     24 O2        101.5400  104.6600  101.0500 oh      1  FDE       -0.3921
     25 C2        100.5000  102.6600  102.0000 c3      1  FDE       -0.0377
     26 H10       101.3600  102.8900  100.0200 h1      1  FDE        0.0611
     27 H11        99.7400  103.1700  102.6100 hc      1  FDE        0.0257
     28 H13       100.0700  101.6900  101.7000 hc      1  FDE        0.0257
     29 H14       101.0300  105.1800  101.7000 ho      1  FDE        0.2105
     30 H15        96.1900   99.9400   98.5000 ho      1  FDE        0.2105
     31 H16        93.0600  102.0200  101.0200 h4      1  FDE        0.0902
     32 H17        94.6600  101.8100  103.2200 ha      1  FDE        0.0645
     33 H18        97.1200  102.6300  102.3700 ha      1  FDE        0.0648
     34 N1        101.6900  102.4100  102.8400 n3      2  DFA       -0.3248
     35 C         102.8500  101.7900  102.1700 c3      2  DFA        0.0403
     36 C1        102.5600  100.4500  101.5500 cc      2  DFA        0.0725
     37 H         103.6600  101.6700  102.9100 h1      2  DFA        0.0498
     38 H1        103.2400  102.4700  101.4000 h1      2  DFA        0.0498
     39 O         102.5200  100.3100  100.1900 os      2  DFA       -0.3174
     40 C2        102.4900   99.2800  102.2600 cd      2  DFA       -0.0319
     41 C3        102.4600   98.9500  100.0700 cc      2  DFA        0.0654
     42 C4        102.4300   98.2700  101.2600 cd      2  DFA       -0.0327
     43 C5        102.5600   98.3200   98.7000 c3      2  DFA        0.0418
     44 C6        102.1800   96.8700   98.6100 cc      2  DFA        0.0654
     45 H2        103.5900   98.4500   98.3400 hc      2  DFA        0.0409
     46 H3        101.9400   98.8900   98.0000 hc      2  DFA        0.0409
     47 C7        101.0000   96.3300   99.0400 cd      2  DFA       -0.0327
     48 C8        101.0200   94.9900   98.6000 cd      2  DFA       -0.0319
     49 O1        102.9800   95.9900   97.9100 os      2  DFA       -0.3174
     50 C9        102.2200   94.8600   97.9400 cc      2  DFA        0.0725
     51 C10       102.6700   93.6200   97.2000 c3      2  DFA        0.0403
     52 N2        102.1200   92.3800   97.7700 n3      2  DFA       -0.3248
     53 H4        103.7700   93.5800   97.2200 h1      2  DFA        0.0498
     54 H5        102.3600   93.7100   96.1500 h1      2  DFA        0.0498
     55 H6        101.9900  103.3000  103.2300 hn      2  DFA        0.1188
     56 H8        102.4500   92.2700   98.7300 hn      2  DFA        0.1188
     57 H9        102.4700   91.5800   97.2500 hn      2  DFA        0.1188
     58 H10       102.5600   99.1400  103.3300 ha      2  DFA        0.0648
     59 H11       102.4300   97.1900  101.4200 ha      2  DFA        0.0648
     60 H12       100.2000   96.8300   99.5700 ha      2  DFA        0.0648
     61 H13       100.2400   94.2400   98.7200 ha      2  DFA        0.0648
@<TRIPOS>BOND
     1     1     2    1
     2     2     3    2
     3     1     4    1
     4     4     5    2
     5     3     5    1
     6     4     6    1
     7     6     7    1
     8     6     8    1
     9     6     9    1
    10     7    10    1
    11     7    11    1
    12    11    12    1
    13    11    13    1
    14    11    14    1
    15    12    15    1
    16    15    16    1
    17    15    17    1
    18    15    18    1
    19    12    19    1
    20    12    20    1
    21    10    21    1
    22    10    22    1
    23    10    23    1
    24    21    24    1
    25    21    25    1
    26    21    26    1
    27    25    27    1
    28    25    28    1
    29    24    29    1
    30    19    30    1
    31     2    31    1
    32     3    32    1
    33     5    33    1
    34    34    35    1
    35    35    36    1
    36    35    37    1
    37    35    38    1
    38    36    39    1
    39    36    40    2
    40    39    41    1
    41    41    42    2
    42    40    42    1
    43    41    43    1
    44    43    44    1
    45    43    45    1
    46    43    46    1
    47    44    47    2
    48    47    48    1
    49    44    49    1
    50    49    50    1
    51    48    50    2
    52    50    51    1
    53    51    52    1
    54    51    53    1
    55    51    54    1
    56    34    55    1
    57    52    56    1
    58    52    57    1
    59    40    58    1
    60    42    59    1
    61    47    60    1
    62    48    61    1
    63    25    34    1
