@<TRIPOS>MOLECULE
FDE+DFA+DFA
    88    92  1  0  0
SMALL
gas

@<TRIPOS>ATOM
      1 O          98.1500  100.9900   98.7500 os      1  FDE       -0.3212
      2 C          97.5700  100.8200   99.9800 cc      1  FDE        0.0455
      3 C3         98.4600  100.4800  100.9700 cd      1  FDE       -0.0364
      4 C4         99.4600  100.7100   99.0200 cc      1  FDE        0.0725
      5 C5         99.7200  100.4100  100.3300 cd      1  FDE       -0.0322
      6 C6        100.4800  100.7000   97.9000 c3      1  FDE        0.0457
      7 N         101.7700  100.0700   98.2700 n3      1  FDE       -0.2919
      8 H         100.6300  101.7400   97.5900 h1      1  FDE        0.0503
      9 H1        100.0300  100.1900   97.0400 h1      1  FDE        0.0503
     10 C7        102.9000  101.0100   98.1500 c3      1  FDE        0.0245
     11 C8        102.0000   98.7300   97.6400 c3      1  FDE        0.0245
     12 C9        101.1600   97.5700   98.2600 c3      1  FDE        0.0639
     13 H2        103.0500   98.4500   97.7500 h1      1  FDE        0.0458
     14 H3        101.8000   98.8000   96.5700 h1      1  FDE        0.0458
     15 C1        101.4400   96.1900   97.6000 c3      1  FDE       -0.0377
     16 H5        100.7200   95.4700   98.0100 hc      1  FDE        0.0257
     17 H6        102.4300   95.8500   97.9400 hc      1  FDE        0.0257
     18 O1         99.7700   97.8300   98.2500 oh      1  FDE       -0.3921
     19 H7        101.4700   97.4900   99.3100 h1      1  FDE        0.0611
     20 C10       104.1400  100.6100   98.9900 c3      1  FDE        0.0639
     21 H8        102.5900  102.0000   98.4900 h1      1  FDE        0.0458
     22 H9        103.1900  101.1100   97.0900 h1      1  FDE        0.0458
     23 O2        105.1700  101.5900   98.7800 oh      1  FDE       -0.3921
     24 C2        103.8000  100.5100  100.4900 c3      1  FDE       -0.0377
     25 H10       104.5200   99.6400   98.6500 h1      1  FDE        0.0611
     26 H11       103.3500  101.4500  100.8300 hc      1  FDE        0.0257
     27 H13       103.0600   99.7200  100.6300 hc      1  FDE        0.0257
     28 H14       104.9000  102.4000   99.2600 ho      1  FDE        0.2105
     29 H15        99.2900   96.9800   98.2500 ho      1  FDE        0.2105
     30 H16        96.5000  100.9600  100.0300 h4      1  FDE        0.0902
     31 H17        98.2400  100.2800  102.0100 ha      1  FDE        0.0645
     32 H18       100.6700  100.1400  100.7900 ha      1  FDE        0.0648
     33 N1        101.4200   96.1300   96.1200 n3      2  DFA       -0.3248
     34 C         100.2200   96.6100   95.3900 c3      2  DFA        0.0403
     35 C1         98.9000   96.0800   95.9000 cc      2  DFA        0.0725
     36 H         100.3200   96.3500   94.3300 h1      2  DFA        0.0498
     37 H1        100.1900   97.7100   95.4400 h1      2  DFA        0.0498
     38 O          97.8900   96.9600   96.1700 os      2  DFA       -0.3174
     39 C2         98.6500   94.7800   96.2600 cd      2  DFA       -0.0319
     40 C3         96.9900   96.1400   96.7900 cc      2  DFA        0.0654
     41 C4         97.3700   94.8300   96.8700 cd      2  DFA       -0.0327
     42 C5         95.8000   96.7400   97.5100 c3      2  DFA        0.0418
     43 C6         94.4900   96.5200   96.8000 cc      2  DFA        0.0654
     44 H2         95.9700   97.8200   97.6400 hc      2  DFA        0.0409
     45 H3         95.7400   96.3300   98.5200 hc      2  DFA        0.0409
     46 C7         93.9800   95.2900   96.4600 cd      2  DFA       -0.0327
     47 C8         92.7000   95.5700   95.9200 cd      2  DFA       -0.0319
     48 O1         93.6600   97.5800   96.5500 os      2  DFA       -0.3174
     49 C9         92.5700   96.9400   96.0100 cc      2  DFA        0.0725
     50 C10        91.3600   97.7100   95.5800 c3      2  DFA        0.0403
     51 N2         90.1600   97.2900   96.3200 n3      2  DFA       -0.3248
     52 H4         91.2000   97.5500   94.5000 h1      2  DFA        0.0498
     53 H5         91.5400   98.7800   95.7400 h1      2  DFA        0.0498
     54 H6        102.2400   96.6100   95.7500 hn      2  DFA        0.1188
     55 H8         89.9700   96.3100   96.1400 hn      2  DFA        0.1188
     56 H9         89.3500   97.8200   95.9800 hn      2  DFA        0.1188
     57 H10        99.3200   93.9300   96.1900 ha      2  DFA        0.0648
     58 H11        96.8500   94.0100   97.3700 ha      2  DFA        0.0648
     59 H12        94.4400   94.3200   96.5900 ha      2  DFA        0.0648
     60 H13        91.9800   94.8600   95.5500 ha      2  DFA        0.0648
     61 N1        102.2000  108.6600  107.1600 n3      3  DFA       -0.3248
     62 C         101.5800  107.4400  107.6900 c3      3  DFA        0.0403
     63 C1        101.6200  106.3100  106.7000 cc      3  DFA        0.0725
     64 H         100.5400  107.6400  107.9600 h1      3  DFA        0.0498
     65 H1        102.1100  107.1300  108.6000 h1      3  DFA        0.0498
     66 O         102.1100  105.0800  107.0500 os      3  DFA       -0.3174
     67 C2        101.1200  106.3800  105.4200 cd      3  DFA       -0.0319
     68 C3        101.8800  104.3700  105.9000 cc      3  DFA        0.0654
     69 C4        101.2900  105.0800  104.8900 cd      3  DFA       -0.0327
     70 C5        102.1900  102.8900  105.8400 c3      3  DFA        0.0418
     71 C6        103.1700  102.5000  104.7600 cc      3  DFA        0.0654
     72 H2        101.2500  102.3400  105.7000 hc      3  DFA        0.0409
     73 H3        102.5800  102.5700  106.8100 hc      3  DFA        0.0409
     74 C7        104.1800  103.3000  104.2800 cd      3  DFA       -0.0327
     75 C8        104.9000  102.4700  103.3900 cd      3  DFA       -0.0319
     76 O1        103.1600  101.2300  104.2600 os      3  DFA       -0.3174
     77 C9        104.2400  101.2600  103.4300 cc      3  DFA        0.0725
     78 C10       104.7200  100.0100  102.7400 c3      3  DFA        0.0403
     79 N2        104.9900  100.2000  101.3100 n3      3  DFA       -0.3248
     80 H4        103.9800   99.2200  102.8800 h1      3  DFA        0.0498
     81 H5        105.6500   99.6800  103.2400 h1      3  DFA        0.0498
     82 H6        102.1900  109.3800  107.8800 hn      3  DFA        0.1188
     83 H7        103.1800  108.4800  106.9500 hn      3  DFA        0.1188
     84 H9        105.4200   99.3500  100.9400 hn      3  DFA        0.1188
     85 H10       100.6600  107.2400  104.9400 ha      3  DFA        0.0648
     86 H11       101.0000  104.7200  103.9100 ha      3  DFA        0.0648
     87 H12       104.4100  104.3200  104.5600 ha      3  DFA        0.0648
     88 H13       105.8000  102.7200  102.8400 ha      3  DFA        0.0648
@<TRIPOS>BOND
     1     1     2    1
     2     2     3    2
     3     1     4    1
     4     4     5    2
     5     3     5    1
     6     4     6    1
     7     6     7    1
     8     6     8    1
     9     6     9    1
    10     7    10    1
    11     7    11    1
    12    11    12    1
    13    11    13    1
    14    11    14    1
    15    12    15    1
    16    15    16    1
    17    15    17    1
    18    12    18    1
    19    12    19    1
    20    10    20    1
    21    10    21    1
    22    10    22    1
    23    20    23    1
    24    20    24    1
    25    20    25    1
    26    24    26    1
    27    24    27    1
    28    23    28    1
    29    18    29    1
    30     2    30    1
    31     3    31    1
    32     5    32    1
    33    33    34    1
    34    34    35    1
    35    34    36    1
    36    34    37    1
    37    35    38    1
    38    35    39    2
    39    38    40    1
    40    40    41    2
    41    39    41    1
    42    40    42    1
    43    42    43    1
    44    42    44    1
    45    42    45    1
    46    43    46    2
    47    46    47    1
    48    43    48    1
    49    48    49    1
    50    47    49    2
    51    49    50    1
    52    50    51    1
    53    50    52    1
    54    50    53    1
    55    33    54    1
    56    51    55    1
    57    51    56    1
    58    39    57    1
    59    41    58    1
    60    46    59    1
    61    47    60    1
    62    15    33    1
    63    61    62    1
    64    62    63    1
    65    62    64    1
    66    62    65    1
    67    63    66    1
    68    63    67    2
    69    66    68    1
    70    68    69    2
    71    67    69    1
    72    68    70    1
    73    70    71    1
    74    70    72    1
    75    70    73    1
    76    71    74    2
    77    74    75    1
    78    71    76    1
    79    76    77    1
    80    75    77    2
    81    77    78    1
    82    78    79    1
    83    78    80    1
    84    78    81    1
    85    61    82    1
    86    61    83    1
    87    79    84    1
    88    67    85    1
    89    69    86    1
    90    74    87    1
    91    75    88    1
    92    24    79    1
