@<TRIPOS>MOLECULE
FDE+DFA
    61    63  1  0  0
SMALL
gas

@<TRIPOS>ATOM
      1 O          95.9200   98.2300   96.7500 os      1  FDE       -0.3212
      2 C          95.2700   97.9300   97.9200 cc      1  FDE        0.0455
      3 C3         96.0900   97.9500   99.0300 cd      1  FDE       -0.0364
      4 C4         97.2100   98.4300   97.1900 cc      1  FDE        0.0725
      5 C5         97.3700   98.2900   98.5400 cd      1  FDE       -0.0322
      6 C6         98.2900   98.8400   96.2300 c3      1  FDE        0.0457
      7 N          99.6300   98.3300   96.6300 n3      1  FDE       -0.2919
      8 H          98.2900   99.9300   96.2100 h1      1  FDE        0.0503
      9 H1         98.0400   98.5000   95.2200 h1      1  FDE        0.0503
     10 C7        100.6900   99.3500   96.4400 c3      1  FDE        0.0245
     11 C8        100.0000   96.9900   96.1000 c3      1  FDE        0.0245
     12 C9         98.9800   95.8500   96.3800 c3      1  FDE        0.0639
     13 H2        100.9500   96.6800   96.5400 h1      1  FDE        0.0458
     14 H3        100.1600   97.0500   95.0200 h1      1  FDE        0.0458
     15 C1         99.6600   94.4700   96.3400 c3      1  FDE       -0.0377
     16 H4        100.1100   94.2800   95.3600 hc      1  FDE        0.0257
     17 H5         98.9300   93.6700   96.5500 hc      1  FDE        0.0257
     18 H6        100.4500   94.4000   97.1000 hc      1  FDE        0.0257
     19 O1         97.9400   95.8700   95.4100 oh      1  FDE       -0.3921
     20 H7         98.5600   96.0000   97.3900 h1      1  FDE        0.0611
     21 C10       101.9800   99.0900   97.2700 c3      1  FDE        0.0639
     22 H8        100.3100  100.3400   96.7400 h1      1  FDE        0.0458
     23 H9        100.9600   99.4200   95.3700 h1      1  FDE        0.0458
     24 O2        102.9200  100.1300   96.9900 oh      1  FDE       -0.3921
     25 C2        101.6800   99.0300   98.7800 c3      1  FDE       -0.0377
     26 H10       102.4200   98.1400   96.9600 h1      1  FDE        0.0611
     27 H11       101.2100   99.9700   99.1000 hc      1  FDE        0.0257
     28 H13       100.9600   98.2200   98.9700 hc      1  FDE        0.0257
     29 H14       102.6100  100.9300   97.4400 ho      1  FDE        0.2105
     30 H15        97.2000   95.3300   95.7600 ho      1  FDE        0.2105
     31 H16        94.2100   97.7200   97.8400 h4      1  FDE        0.0902
     32 H17        95.8000   97.7500  100.0600 ha      1  FDE        0.0645
     33 H18        98.2800   98.4100   99.1200 ha      1  FDE        0.0648
     34 N1         99.9200  107.3500  105.7400 n3      2  DFA       -0.3248
     35 C          99.5400  106.0300  106.2500 c3      2  DFA        0.0403
     36 C1         99.7000  104.9500  105.2100 cc      2  DFA        0.0725
     37 H          98.5000  106.0400  106.5900 h1      2  DFA        0.0498
     38 H1        100.1700  105.7800  107.1200 h1      2  DFA        0.0498
     39 O         100.2400  103.7400  105.5400 os      2  DFA       -0.3174
     40 C2         99.2400  105.0400  103.9200 cd      2  DFA       -0.0319
     41 C3        100.1000  103.0500  104.3600 cc      2  DFA        0.0654
     42 C4         99.5100  103.7700  103.3500 cd      2  DFA       -0.0327
     43 C5        100.4500  101.5900  104.2800 c3      2  DFA        0.0418
     44 C6        101.2800  101.1900  103.0900 cc      2  DFA        0.0654
     45 H2         99.5200  101.0000  104.2800 hc      2  DFA        0.0409
     46 H3        100.9800  101.3000  105.2000 hc      2  DFA        0.0409
     47 C7        102.2100  101.9900  102.4700 cd      2  DFA       -0.0327
     48 C8        102.8400  101.1400  101.5300 cd      2  DFA       -0.0319
     49 O1        101.2500   99.9000  102.6400 os      2  DFA       -0.3174
     50 C9        102.2300   99.9200  101.6900 cc      2  DFA        0.0725
     51 C10       102.6800   98.6500  101.0200 c3      2  DFA        0.0403
     52 N2        102.9000   98.7800   99.5700 n3      2  DFA       -0.3248
     53 H4        101.9400   97.8600  101.2100 h1      2  DFA        0.0498
     54 H5        103.6200   98.3300  101.4900 h1      2  DFA        0.0498
     55 H6         99.8200  108.0400  106.4900 hn      2  DFA        0.1188
     56 H7        100.9000  107.3500  105.4800 hn      2  DFA        0.1188
     57 H9        103.3400   97.9300   99.2200 hn      2  DFA        0.1188
     58 H10        98.7500  105.8800  103.4400 ha      2  DFA        0.0648
     59 H11        99.2600  103.4300  102.3500 ha      2  DFA        0.0648
     60 H12       102.4500  103.0200  102.6900 ha      2  DFA        0.0648
     61 H13       103.6700  101.3900  100.8700 ha      2  DFA        0.0648
@<TRIPOS>BOND
     1     1     2    1
     2     2     3    2
     3     1     4    1
     4     4     5    2
     5     3     5    1
     6     4     6    1
     7     6     7    1
     8     6     8    1
     9     6     9    1
    10     7    10    1
    11     7    11    1
    12    11    12    1
    13    11    13    1
    14    11    14    1
    15    12    15    1
    16    15    16    1
    17    15    17    1
    18    15    18    1
    19    12    19    1
    20    12    20    1
    21    10    21    1
    22    10    22    1
    23    10    23    1
    24    21    24    1
    25    21    25    1
    26    21    26    1
    27    25    27    1
    28    25    28    1
    29    24    29    1
    30    19    30    1
    31     2    31    1
    32     3    32    1
    33     5    33    1
    34    34    35    1
    35    35    36    1
    36    35    37    1
    37    35    38    1
    38    36    39    1
    39    36    40    2
    40    39    41    1
    41    41    42    2
    42    40    42    1
    43    41    43    1
    44    43    44    1
    45    43    45    1
    46    43    46    1
    47    44    47    2
    48    47    48    1
    49    44    49    1
    50    49    50    1
    51    48    50    2
    52    50    51    1
    53    51    52    1
    54    51    53    1
    55    51    54    1
    56    34    55    1
    57    34    56    1
    58    52    57    1
    59    40    58    1
    60    42    59    1
    61    47    60    1
    62    48    61    1
    63    25    52    1
