@<TRIPOS>MOLECULE
*****
 73 74 0 0 0
SMALL
GASTEIGER

@<TRIPOS>ATOM
      1 C          -4.8606    2.8175    0.6954 C.3     1  GMA1       -0.0335
      2 C1         -3.4521    2.6874    0.1736 C.2     1  GMA1        0.0264
      3 H          -5.5485    2.0739    0.2387 H       1  GMA1        0.0280
      4 H          -5.2505    3.8343    0.4807 H       1  GMA1        0.0280
      5 H          -4.8594    2.6549    1.7943 H       1  GMA1        0.0280
      6 C          -2.3931    3.5815    0.7081 C.2     1  GMA1        0.3344
      7 O          -1.0941    3.3935    0.3572 O.3     1  GMA1       -0.4587
      8 C          -0.0680    4.2383    0.7324 C.3     1  GMA1        0.1218
      9 C2         -3.1642    1.7694   -0.7640 C.2     1  GMA1       -0.0890
     10 C           1.2780    3.6886    0.2415 C.3     1  GMA1        0.1230
     11 H          -0.0414    4.3444    1.8398 H       1  GMA1        0.0725
     12 H          -0.2514    5.2374    0.2778 H       1  GMA1        0.0725
     13 C           2.3970    4.6934    0.5299 C.3     1  GMA1        0.1186
     14 O           3.5888    4.2460   -0.0088 O.3     1  GMA1       -0.4893
     15 H           2.5026    4.8513    1.6261 H       1  GMA1        0.0724
     16 H           2.1304    5.6587    0.0440 H       1  GMA1        0.0724
     17 C           4.7496    4.9528   -0.0367 C.ar    1  GMA1        0.1206
     18 C           4.9081    6.1768    0.6369 C.ar    1  GMA1       -0.0197
     19 C           6.1031    6.8938    0.5382 C.ar    1  GMA1       -0.0543
     20 C           7.1806    6.4151   -0.2449 C.ar    1  GMA1       -0.0372
     21 C           5.8146    4.4546   -0.7897 C.ar    1  GMA1       -0.0197
     22 C           8.4962    7.2116   -0.4492 C.3     1  GMA1        0.0151
     23 C           8.5961    7.5138   -1.9678 C.3     1  GMA1       -0.0517
     24 H           8.6926    6.5846   -2.5663 H       1  GMA1        0.0241
     25 H           9.4672    8.1545   -2.2129 H       1  GMA1        0.0241
     26 H           7.6891    8.0570   -2.3131 H       1  GMA1        0.0241
     27 C           8.4684    8.5722    0.2945 C.3     1  GMA1       -0.0517
     28 H           7.6102    9.1941   -0.0404 H       1  GMA1        0.0241
     29 H           9.3841    9.1683    0.0991 H       1  GMA1        0.0241
     30 H           8.4006    8.4143    1.3928 H       1  GMA1        0.0241
     31 C           9.7567    6.4489    0.0243 C.ar    1  GMA1       -0.0372
     32 C           9.7031    5.2236    0.7302 C.ar    1  GMA1       -0.0543
     33 C          10.8753    4.5722    1.1367 C.ar    1  GMA1       -0.0197
     34 C          11.0349    6.9912   -0.2376 C.ar    1  GMA1       -0.0543
     35 C          12.1993    6.3379    0.1633 C.ar    1  GMA1       -0.0197
     36 C          12.1326    5.1158    0.8550 C.ar    1  GMA1        0.1206
     37 O          13.2465    4.4450    1.2593 O.3     1  GMA1       -0.4893
     38 C          14.5449    4.8360    0.9845 C.3     1  GMA1        0.1186
     39 C          15.5579    3.8551    1.5865 C.3     1  GMA1        0.1230
     40 H          14.7253    5.8475    1.4119 H       1  GMA1        0.0724
     41 H          14.6874    4.8733   -0.1190 H       1  GMA1        0.0724
     42 C          16.9821    4.3253    1.2539 C.3     1  GMA1        0.1218
     43 O          17.9242    3.4504    1.7593 O.3     1  GMA1       -0.4587
     44 H          17.1350    5.3340    1.6990 H       1  GMA1        0.0725
     45 H          17.1101    4.3950    0.1506 H       1  GMA1        0.0725
     46 C          19.2644    3.6812    1.6935 C.2     1  GMA1        0.3344
     47 C3         20.2295    2.6628    2.1823 C.2     1  GMA1        0.0264
     48 C4         19.8077    1.4522    2.5804 C.2     1  GMA1       -0.0890
     49 C          21.6985    3.0042    2.2292 C.3     1  GMA1       -0.0335
     50 H          21.8454    3.9138    2.8497 H       1  GMA1        0.0280
     51 H          22.0717    3.2032    1.2030 H       1  GMA1        0.0280
     52 H          22.3059    2.1860    2.6724 H       1  GMA1        0.0280
     53 O          -2.6976    4.4753    1.4893 O.2     1  GMA1       -0.2453
     54 O           1.5711    2.4731    0.8823 O.3     1  GMA1       -0.3850
     55 H           1.2362    3.5457   -0.8641 H       1  GMA1        0.0662
     56 H           1.0619    1.7641    0.4102 H       1  GMA1        0.2101
     57 O          15.3352    2.5732    1.0589 O.3     1  GMA1       -0.3850
     58 H          15.4140    3.8481    2.6938 H       1  GMA1        0.0662
     59 H          15.6646    1.9238    1.7347 H       1  GMA1        0.2101
     60 O          19.6847    4.7469    1.2634 O.2     1  GMA1       -0.2453
     61 H           4.1069    6.5945    1.2316 H       1  GMA1        0.0654
     62 H           6.1501    7.8325    1.0687 H       1  GMA1        0.0622
     63 C           7.0080    5.1732   -0.8990 C.ar    1  GMA1       -0.0543
     64 H           7.7995    4.7583   -1.5092 H       1  GMA1        0.0622
     65 H           5.7102    3.5133   -1.3149 H       1  GMA1        0.0654
     66 H          11.1481    7.9286   -0.7634 H       1  GMA1        0.0622
     67 H          13.1484    6.7993   -0.0733 H       1  GMA1        0.0654
     68 H           8.7639    4.7564    0.9852 H       1  GMA1        0.0622
     69 H          10.8034    3.6348    1.6740 H       1  GMA1        0.0654
     70 H          18.7575    1.1802    2.5480 H       1  UNL1        0.0540
     71 H          20.5108    0.7030    2.9323 H       1  UNL1        0.0540
     72 H          -3.9342    1.1150   -1.1618 H       1  UNL1        0.0540
     73 H          -2.1598    1.6616   -1.1612 H       1  UNL1        0.0540
@<TRIPOS>BOND
     1     1     2    1
     2     1     3    1
     3     1     4    1
     4     1     5    1
     5     2     6    1
     6     6     7    1
     7     7     8    1
     8     2     9    2
     9     8    10    1
    10     8    11    1
    11     8    12    1
    12    10    13    1
    13    13    14    1
    14    13    15    1
    15    13    16    1
    16    14    17    1
    17    17    18   ar
    18    18    19   ar
    19    19    20   ar
    20    17    21   ar
    21    20    22    1
    22    22    23    1
    23    23    24    1
    24    23    25    1
    25    23    26    1
    26    22    27    1
    27    27    28    1
    28    27    29    1
    29    27    30    1
    30    22    31    1
    31    31    32   ar
    32    32    33   ar
    33    31    34   ar
    34    34    35   ar
    35    35    36   ar
    36    33    36   ar
    37    36    37    1
    38    37    38    1
    39    38    39    1
    40    38    40    1
    41    38    41    1
    42    39    42    1
    43    42    43    1
    44    42    44    1
    45    42    45    1
    46    43    46    1
    47    46    47    1
    48    47    48    2
    49    47    49    1
    50    49    50    1
    51    49    51    1
    52    49    52    1
    53     6    53    2
    54    10    54    1
    55    10    55    1
    56    54    56    1
    57    39    57    1
    58    39    58    1
    59    57    59    1
    60    46    60    2
    61    18    61    1
    62    19    62    1
    63    20    63   ar
    64    63    21   ar
    65    63    64    1
    66    21    65    1
    67    34    66    1
    68    35    67    1
    69    32    68    1
    70    33    69    1
    71    48    70    1
    72    48    71    1
    73     9    72    1
    74     9    73    1
