@<TRIPOS>MOLECULE
*****
 152 155 0 0 0
SMALL
GASTEIGER
@<TRIPOS>ATOM
      1 C             -4.81      2.77       0.8  C.3    1  GMA       -0.0525
      2 C1            -3.36      2.36      0.48  C.3    1  GMA        0.0508
      3 H              -5.5      1.92      0.63    H    1  GMA        0.0237
      4 H             -5.12      3.62      0.15    H    1  GMA        0.0237
      5 H              -4.9      3.09      1.86    H    1  GMA        0.0237
      6 C             -2.38      3.48      0.74  C.2    1  GMA        0.3097
      7 O             -1.05      3.25      0.52  O.3    1  GMA       -0.4617
      8 C             -0.07      4.18      0.76  C.3    1  GMA        0.1215
      9 C2            -3.26      1.89     -0.97  C.3    1  GMA       -0.0525
     10 C              1.29      3.64       0.3  C.3    1  GMA        0.1230
     11 H             -0.04      4.42      1.85    H    1  GMA        0.0725
     12 H             -0.29      5.12       0.2    H    1  GMA        0.0725
     13 C              2.39      4.69      0.53  C.3    1  GMA        0.1186
     14 O              3.59      4.24       0.0  O.3    1  GMA       -0.4893
     15 H               2.5      4.89      1.62    H    1  GMA        0.0724
     16 H               2.1      5.63      0.01    H    1  GMA        0.0724
     17 C              4.75      4.95     -0.03 C.ar    1  GMA        0.1206
     18 C               4.9      6.17      0.64 C.ar    1  GMA       -0.0197
     19 C               6.1      6.89      0.55 C.ar    1  GMA       -0.0543
     20 C              7.18      6.41     -0.24 C.ar    1  GMA       -0.0372
     21 C              5.81      4.45     -0.79 C.ar    1  GMA       -0.0197
     22 C              8.49      7.21     -0.44  C.3    1  GMA        0.0151
     23 C              8.59      7.52     -1.96  C.3    1  GMA       -0.0517
     24 H              8.69      6.59     -2.56    H    1  GMA        0.0241
     25 H              9.46      8.16      -2.2    H    1  GMA        0.0241
     26 H              7.68      8.06      -2.3    H    1  GMA        0.0241
     27 C              8.47      8.57      0.31  C.3    1  GMA       -0.0517
     28 H              7.61      9.19     -0.02    H    1  GMA        0.0241
     29 H              9.38      9.16      0.11    H    1  GMA        0.0241
     30 H               8.4       8.4      1.41    H    1  GMA        0.0241
     31 C              9.75      6.45      0.02 C.ar    1  GMA       -0.0372
     32 C              9.71      5.22      0.73 C.ar    1  GMA       -0.0543
     33 C             10.88      4.57      1.13 C.ar    1  GMA       -0.0197
     34 C             11.03      6.99     -0.24 C.ar    1  GMA       -0.0543
     35 C              12.2      6.34      0.16 C.ar    1  GMA       -0.0197
     36 C             12.14      5.12      0.85 C.ar    1  GMA        0.1206
     37 O             13.25      4.46      1.25  O.3    1  GMA       -0.4893
     38 C             14.55      4.84      0.96  C.3    1  GMA        0.1186
     39 C             15.56      3.89      1.62  C.3    1  GMA        0.1230
     40 H             14.73      5.87      1.36    H    1  GMA        0.0724
     41 H              14.7      4.84     -0.14    H    1  GMA        0.0724
     42 C             16.99      4.33      1.28  C.3    1  GMA        0.1215
     43 O              17.9      3.53      1.93  O.3    1  GMA       -0.4617
     44 H             17.14      5.38       1.6    H    1  GMA        0.0725
     45 H             17.14      4.26      0.18    H    1  GMA        0.0725
     46 C             19.25      3.66      1.79  C.2    1  GMA        0.3097
     47 C3            20.16       2.8      2.65  C.3    1  GMA        0.0508
     48 C4            19.87      1.32       2.4  C.3    1  GMA       -0.0525
     49 C             21.65       3.1      2.39  C.3    1  GMA       -0.0525
     50 H             21.87      4.17       2.6    H    1  GMA        0.0237
     51 H             21.91      2.88      1.33    H    1  GMA        0.0237
     52 H             22.28      2.48      3.05    H    1  GMA        0.0237
     53 O             -2.76      4.57      1.14  O.2    1  GMA       -0.2506
     54 O              1.62      2.47       1.0  O.3    1  GMA       -0.3850
     55 H              1.25      3.44     -0.79    H    1  GMA        0.0662
     56 H              1.16      1.72      0.54    H    1  GMA        0.2101
     57 O             15.33      2.59      1.16  O.3    1  GMA       -0.3850
     58 H              15.4      3.95      2.73    H    1  GMA        0.0662
     59 H             15.71      1.97      1.84    H    1  GMA        0.2101
     60 O             19.71      4.46       1.0  O.2    1  GMA       -0.2506
     61 H               4.1      6.59      1.24    H    1  GMA        0.0654
     62 H              6.15      7.83      1.08    H    1  GMA        0.0622
     63 C               7.0      5.17      -0.9 C.ar    1  GMA       -0.0543
     64 H              7.79      4.76     -1.51    H    1  GMA        0.0622
     65 H              5.71      3.51     -1.31    H    1  GMA        0.0654
     66 H             11.14      7.93     -0.76    H    1  GMA        0.0622
     67 H             13.14      6.81     -0.08    H    1  GMA        0.0654
     68 H              8.77      4.75      0.98    H    1  GMA        0.0622
     69 H             10.82      3.63      1.67    H    1  GMA        0.0654
     70 H              -3.1      1.51      1.15    H    1  GMA        0.0408
     71 H             -3.51      2.71     -1.67    H    1  GMA        0.0237
     72 H             -3.95      1.04     -1.15    H    1  GMA        0.0237
     73 H             -2.23      1.53     -1.19    H    1  GMA        0.0237
     74 H             19.95      3.03      3.71    H    1  GMA        0.0408
     75 H             20.51      0.69      3.06    H    1  GMA        0.0237
     76 H             20.07      1.05      1.34    H    1  GMA        0.0237
     77 C             16.93      0.23      1.21  C.3    1 CRO0       -0.0525
     78 C1            18.37     -0.18       0.9  C.3    1 CRO0        0.0508
     79 H             16.24     -0.62      1.05    H    1 CRO0        0.0237
     80 H             16.61      1.08      0.56    H    1 CRO0        0.0237
     81 H             16.84      0.55      2.28    H    1 CRO0        0.0237
     82 C             19.36      0.94      1.15  C.2    1 CRO0        0.3097
     83 O             20.68      0.71      0.93  O.3    1 CRO0       -0.4617
     84 C             21.67      1.65      1.18  C.3    1 CRO0        0.1215
     85 C2            18.48     -0.65     -0.55  C.3    1 CRO0       -0.0525
     86 C             23.03       1.1      0.72  C.3    1 CRO0        0.1230
     87 H              21.7      1.88      2.27    H    1 CRO0        0.0725
     88 H             21.45      2.58      0.61    H    1 CRO0        0.0725
     89 C             24.13      2.15      0.95  C.3    1 CRO0        0.1186
     90 O             25.32       1.7      0.42  O.3    1 CRO0       -0.4893
     91 H             24.23      2.35      2.04    H    1 CRO0        0.0724
     92 H             23.84      3.09      0.43    H    1 CRO0        0.0724
     93 C             26.48      2.41      0.39 C.ar    1 CRO0        0.1206
     94 C             26.64      3.64      1.06 C.ar    1 CRO0       -0.0197
     95 C             27.83      4.35      0.96 C.ar    1 CRO0       -0.0543
     96 C             28.91      3.87      0.18 C.ar    1 CRO0       -0.0372
     97 C             27.55      1.91     -0.37 C.ar    1 CRO0       -0.0197
     98 C             30.23      4.67     -0.03  C.3    1 CRO0        0.0151
     99 C             30.32      4.98     -1.54  C.3    1 CRO0       -0.0517
    100 H             30.42      4.05     -2.15    H    1 CRO0        0.0241
    101 H             31.19      5.62     -1.79    H    1 CRO0        0.0241
    102 H             29.42      5.52     -1.89    H    1 CRO0        0.0241
    103 C              30.2      6.03      0.72  C.3    1 CRO0       -0.0517
    104 H             29.34      6.65      0.39    H    1 CRO0        0.0241
    105 H             31.12      6.63      0.53    H    1 CRO0        0.0241
    106 H             30.14      5.87      1.82    H    1 CRO0        0.0241
    107 C             31.49      3.91      0.44 C.ar    1 CRO0       -0.0372
    108 C             31.44      2.68      1.14 C.ar    1 CRO0       -0.0543
    109 C             32.62      2.03      1.54 C.ar    1 CRO0       -0.0197
    110 C             32.77      4.46      0.17 C.ar    1 CRO0       -0.0543
    111 C             33.93      3.81      0.57 C.ar    1 CRO0       -0.0197
    112 C             33.87      2.58      1.26 C.ar    1 CRO0        0.1206
    113 O             34.99      1.92      1.67  O.3    1 CRO0       -0.4893
    114 C             36.29       2.3      1.38  C.3    1 CRO0        0.1186
    115 C             37.29      1.35      2.04  C.3    1 CRO0        0.1230
    116 H             36.47      3.33      1.77    H    1 CRO0        0.0724
    117 H             36.43       2.3      0.28    H    1 CRO0        0.0724
    118 C             38.72      1.79      1.69  C.3    1 CRO0        0.1215
    119 O             39.64      0.99      2.35  O.3    1 CRO0       -0.4617
    120 H             38.88      2.84      2.01    H    1 CRO0        0.0725
    121 H             38.88      1.72      0.59    H    1 CRO0        0.0725
    122 C             40.98      1.12      2.21  C.2    1 CRO0        0.3097
    123 C3             41.9      0.26      3.06  C.3    1 CRO0        0.0508
    124 C4            41.61     -1.22      2.81  C.3    1 CRO0       -0.0525
    125 C             43.38      0.56       2.8  C.3    1 CRO0       -0.0525
    126 H              43.6      1.63      3.01    H    1 CRO0        0.0237
    127 H             43.65      0.34      1.75    H    1 CRO0        0.0237
    128 H             44.02     -0.06      3.47    H    1 CRO0        0.0237
    129 O             18.98      2.03      1.55  O.2    1 CRO0       -0.2506
    130 O             23.35     -0.07      1.42  O.3    1 CRO0       -0.3850
    131 H             22.98       0.9     -0.38    H    1 CRO0        0.0662
    132 H             22.89     -0.82      0.96    H    1 CRO0        0.2101
    133 O             37.06      0.05      1.58  O.3    1 CRO0       -0.3850
    134 H             37.13      1.41      3.14    H    1 CRO0        0.0662
    135 H             37.44     -0.57      2.26    H    1 CRO0        0.2101
    136 O             41.45      1.93      1.41  O.2    1 CRO0       -0.2506
    137 H             25.84      4.05      1.66    H    1 CRO0        0.0654
    138 H             27.88      5.29      1.49    H    1 CRO0        0.0622
    139 C             28.74      2.63     -0.48 C.ar    1 CRO0       -0.0543
    140 H             29.53      2.22     -1.09    H    1 CRO0        0.0622
    141 H             27.44      0.97      -0.9    H    1 CRO0        0.0654
    142 H             32.88      5.39     -0.35    H    1 CRO0        0.0622
    143 H             34.88      4.27      0.33    H    1 CRO0        0.0654
    144 H              30.5      2.21       1.4    H    1 CRO0        0.0622
    145 H             32.55      1.09      2.08    H    1 CRO0        0.0654
    146 H             18.22      0.17     -1.25    H    1 CRO0        0.0237
    147 H             17.78      -1.5     -0.73    H    1 CRO0        0.0237
    148 H             19.51      -1.0     -0.77    H    1 CRO0        0.0237
    149 H             41.68      0.49      4.13    H    1 CRO0        0.0408
    150 H             42.25     -1.85      3.47    H    1 CRO0        0.0237
    151 H             41.81     -1.49      1.76    H    1 CRO0        0.0237
    152 H             40.55     -1.45      3.05    H    1 CRO0        0.0237
@<TRIPOS>BOND
     1     1     2    1
     2     1     3    1
     3     1     4    1
     4     1     5    1
     5     2     6    1
     6     6     7    1
     7     7     8    1
     8     2     9    1
     9     8    10    1
    10     8    11    1
    11     8    12    1
    12    10    13    1
    13    13    14    1
    14    13    15    1
    15    13    16    1
    16    14    17    1
    17    17    18   ar
    18    18    19   ar
    19    19    20   ar
    20    17    21   ar
    21    20    22    1
    22    22    23    1
    23    23    24    1
    24    23    25    1
    25    23    26    1
    26    22    27    1
    27    27    28    1
    28    27    29    1
    29    27    30    1
    30    22    31    1
    31    31    32   ar
    32    32    33   ar
    33    31    34   ar
    34    34    35   ar
    35    35    36   ar
    36    33    36   ar
    37    36    37    1
    38    37    38    1
    39    38    39    1
    40    38    40    1
    41    38    41    1
    42    39    42    1
    43    42    43    1
    44    42    44    1
    45    42    45    1
    46    43    46    1
    47    46    47    1
    48    47    48    1
    49    47    49    1
    50    49    50    1
    51    49    51    1
    52    49    52    1
    53     6    53    2
    54    10    54    1
    55    10    55    1
    56    54    56    1
    57    39    57    1
    58    39    58    1
    59    57    59    1
    60    46    60    2
    61    18    61    1
    62    19    62    1
    63    20    63   ar
    64    63    21   ar
    65    63    64    1
    66    21    65    1
    67    34    66    1
    68    35    67    1
    69    32    68    1
    70    33    69    1
    71     2    70    1
    72     9    71    1
    73     9    72    1
    74     9    73    1
    75    47    74    1
    76    48    75    1
    77    48    76    1
    78    77    78    1
    79    77    79    1
    80    77    80    1
    81    77    81    1
    82    78    82    1
    83    82    83    1
    84    83    84    1
    85    78    85    1
    86    84    86    1
    87    84    87    1
    88    84    88    1
    89    86    89    1
    90    89    90    1
    91    89    91    1
    92    89    92    1
    93    90    93    1
    94    93    94   ar
    95    94    95   ar
    96    95    96   ar
    97    93    97   ar
    98    96    98    1
    99    98    99    1
   100    99   100    1
   101    99   101    1
   102    99   102    1
   103    98   103    1
   104   103   104    1
   105   103   105    1
   106   103   106    1
   107    98   107    1
   108   107   108   ar
   109   108   109   ar
   110   107   110   ar
   111   110   111   ar
   112   111   112   ar
   113   109   112   ar
   114   112   113    1
   115   113   114    1
   116   114   115    1
   117   114   116    1
   118   114   117    1
   119   115   118    1
   120   118   119    1
   121   118   120    1
   122   118   121    1
   123   119   122    1
   124   122   123    1
   125   123   124    1
   126   123   125    1
   127   125   126    1
   128   125   127    1
   129   125   128    1
   130    82   129    2
   131    86   130    1
   132    86   131    1
   133   130   132    1
   134   115   133    1
   135   115   134    1
   136   133   135    1
   137   122   136    2
   138    94   137    1
   139    95   138    1
   140    96   139   ar
   141   139    97   ar
   142   139   140    1
   143    97   141    1
   144   110   142    1
   145   111   143    1
   146   108   144    1
   147   109   145    1
   148    85   146    1
   149    85   147    1
   150    85   148    1
   151   123   149    1
   152   124   150    1
   153   124   151    1
   154   124   152    1
   155    78    48    1
