@<TRIPOS>MOLECULE
*****
 34 35 0 0 0
SMALL
GASTEIGER
@<TRIPOS>ATOM
      1 C             24.72     25.16     24.99 C.ar    1  STY       -0.0476
      2 C1            23.55     24.39     24.97 C.ar    1  STY       -0.0586
      3 C2            23.61     22.99     24.99 C.ar    1  STY       -0.0615
      4 C3            24.86     22.34     25.03 C.ar    1  STY       -0.0617
      5 C4            26.04     23.11     25.06 C.ar    1  STY       -0.0615
      6 C5            25.97     24.51     25.04 C.ar    1  STY       -0.0586
      7 C6            24.58     26.68     24.97  C.3    1  STY       -0.0305
      8 C7            25.89     27.49      25.0  C.3    1  STY       -0.0613
      9 H1            24.02     26.97     24.07    H    1  STY        0.0311
     10 H2            26.46     27.27     25.91    H    1  STY        0.0233
     11 H3            25.68     28.56     24.97    H    1  STY        0.0233
     12 H4            26.52     27.25     24.13    H    1  STY        0.0233
     13 H5             26.9     25.07     25.06    H    1  STY        0.0620
     14 H6            24.91     21.26     25.05    H    1  STY        0.0618
     15 H7             27.0     22.61      25.1    H    1  STY        0.0618
     16 H8            22.58     24.87     24.93    H    1  STY        0.0620
     17 H9             22.7      22.4     24.97    H    1  STY        0.0618
     18 C             23.22     23.66     23.49 C.ar    1 CRO0       -0.0476
     19 C1            22.05     22.89     23.47 C.ar    1 CRO0       -0.0586
     20 C2            22.11     21.49     23.49 C.ar    1 CRO0       -0.0615
     21 C3            23.36     20.84     23.53 C.ar    1 CRO0       -0.0617
     22 C4            24.54     21.61     23.56 C.ar    1 CRO0       -0.0615
     23 C5            24.47     23.01     23.54 C.ar    1 CRO0       -0.0586
     24 C6            23.08     25.18     23.47  C.3    1 CRO0       -0.0305
     25 C7            24.39     25.99      23.5  C.3    1 CRO0       -0.0613
     26 H1            22.52     25.47     22.57    H    1 CRO0        0.0311
     27 H2            24.96     25.77     24.41    H    1 CRO0        0.0233
     28 H3            24.18     27.06     23.47    H    1 CRO0        0.0233
     29 H4            25.02     25.75     22.63    H    1 CRO0        0.0233
     30 H5             25.4     23.57     23.56    H    1 CRO0        0.0620
     31 H6            23.41     19.76     23.55    H    1 CRO0        0.0618
     32 H7             25.5     21.11      23.6    H    1 CRO0        0.0618
     33 H8            21.08     23.37     23.43    H    1 CRO0        0.0620
     34 H9             21.2      20.9     23.47    H    1 CRO0        0.0618
@<TRIPOS>BOND
     1     9     7    1
     2    12     8    1
     3    16     2    1
     4     2     1   ar
     5     2     3   ar
     6     7     1    1
     7     7     8    1
     8    11     8    1
     9    17     3    1
    10     1     6   ar
    11     3     4   ar
    12     8    10    1
    13     4    14    1
    14     4     5   ar
    15     6     5   ar
    16     6    13    1
    17     5    15    1
    18    26    24    1
    19    29    25    1
    20    33    19    1
    21    19    18   ar
    22    19    20   ar
    23    24    18    1
    24    24    25    1
    25    28    25    1
    26    34    20    1
    27    18    23   ar
    28    20    21   ar
    29    25    27    1
    30    21    31    1
    31    21    22   ar
    32    23    22   ar
    33    23    30    1
    34    22    32    1
    35    24     7    1
