@<TRIPOS>MOLECULE
*****
 134 138 0 0 0
SMALL
GASTEIGER
@<TRIPOS>ATOM
      1 C             17.25     25.83     26.98  C.3    1  VEB        0.0151
      2 C1            17.03     27.37     27.07  C.3    1  VEB       -0.0517
      3 H             17.86     27.87     27.58    H    1  VEB        0.0241
      4 H1            16.11     27.59     27.63    H    1  VEB        0.0241
      5 H2            16.92     27.81     26.07    H    1  VEB        0.0241
      6 C2            17.61     25.35     28.41  C.3    1  VEB       -0.0517
      7 H3            18.57     25.78     28.73    H    1  VEB        0.0241
      8 H4             17.7     24.26     28.46    H    1  VEB        0.0241
      9 H5            16.85     25.67     29.14    H    1  VEB        0.0241
     10 C3            18.45     25.45     26.09 C.ar    1  VEB       -0.0372
     11 C4            19.45     26.38     25.72 C.ar    1  VEB       -0.0543
     12 C5            20.62     25.98     25.07 C.ar    1  VEB       -0.0197
     13 C6            20.84     24.62     24.78 C.ar    1  VEB        0.1206
     14 C7            19.84     23.69     25.09 C.ar    1  VEB       -0.0197
     15 C8            18.66     24.09     25.74 C.ar    1  VEB       -0.0543
     16 C9            15.92     25.23     26.46 C.ar    1  VEB       -0.0372
     17 C10           15.48     25.55     25.16 C.ar    1  VEB       -0.0543
     18 C11           14.18     25.21     24.73 C.ar    1  VEB       -0.0197
     19 C12            13.3     24.55      25.6 C.ar    1  VEB        0.1206
     20 C13           13.76     24.15     26.86 C.ar    1  VEB       -0.0197
     21 C14           15.05     24.49     27.29 C.ar    1  VEB       -0.0543
     22 H6            16.13     26.11     24.49    H    1  VEB        0.0622
     23 H7            13.83     25.51     23.74    H    1  VEB        0.0654
     24 H8             13.1      23.6     27.53    H    1  VEB        0.0654
     25 H9            15.34      24.2      28.3    H    1  VEB        0.0622
     26 H10           19.34     27.43     25.97    H    1  VEB        0.0622
     27 H11           21.37     26.72     24.82    H    1  VEB        0.0654
     28 H12            20.0     22.64     24.85    H    1  VEB        0.0654
     29 H13           17.92     23.35     26.01    H    1  VEB        0.0622
     30 O             22.03     24.18     24.23  O.3    1  VEB       -0.4893
     31 O1            11.99     24.35     25.23  O.3    1  VEB       -0.4893
     32 C15           23.27     24.88     24.47  C.3    1  VEB        0.1186
     33 C16           24.47     24.01     24.02  C.3    1  VEB        0.1229
     34 H14           23.37      25.1     25.54    H    1  VEB        0.0724
     35 H15           23.28     25.83     23.92    H    1  VEB        0.0724
     36 C17           25.81     24.71     24.36  C.3    1  VEB        0.1186
     37 O2            24.38     22.76     24.69  O.3    1  VEB       -0.3850
     38 H16           24.41     23.87     22.93    H    1  VEB        0.0661
     39 H17           23.45     22.46     24.59    H    1  VEB        0.2101
     40 C18           10.97     24.89      26.1  C.3    1  VEB        0.1186
     41 C19            9.55     24.57     25.55  C.3    1  VEB        0.1230
     42 H18           11.09     25.98     26.16    H    1  VEB        0.0724
     43 H19           11.05     24.48     27.11    H    1  VEB        0.0724
     44 C20            8.51     25.49     26.23  C.3    1  VEB        0.1215
     45 O3              9.2     23.22     25.84  O.3    1  VEB       -0.3850
     46 H20            9.53     24.75     24.47    H    1  VEB        0.0662
     47 H21            8.24     23.15     25.64    H    1  VEB        0.2101
     48 O4             7.18     25.11     25.81  O.3    1  VEB       -0.4617
     49 H22            8.71     26.54     25.96    H    1  VEB        0.0725
     50 H23             8.6      25.4     27.32    H    1  VEB        0.0725
     51 C21            6.13     25.81     26.34  C.2    1  VEB        0.3097
     52 C22            4.77     25.29     25.85  C.3    1  VEB        0.0508
     53 C23             4.0     24.63     27.02  C.3    1  VEB       -0.0525
     54 H24            4.58     23.81     27.46    H    1  VEB        0.0237
     55 H25            3.04     24.22     26.67    H    1  VEB        0.0237
     56 H26            3.78     25.36     27.81    H    1  VEB        0.0237
     57 O5             6.26     26.74     27.12  O.2    1  VEB       -0.2506
     58 C24            3.94     26.42      25.2  C.3    1  VEB       -0.0525
     59 H28            4.49     26.87     24.37    H    1  VEB        0.0237
     60 H29            3.72     27.22     25.93    H    1  VEB        0.0237
     61 H30            2.99     26.04     24.82    H    1  VEB        0.0237
     62 H31           32.91      22.7     27.43    H    1  VEB        0.0241
     63 H32           31.17     22.62     27.14    H    1  VEB        0.0241
     64 C25           32.14     22.78     26.65  C.3    1  VEB       -0.0517
     65 H33           31.42     25.21     27.74    H    1  VEB        0.0241
     66 H34            32.3     21.96     25.94    H    1  VEB        0.0241
     67 H35           33.18     25.08     27.68    H    1  VEB        0.0241
     68 C26           32.29     25.24     27.07  C.3    1  VEB       -0.0517
     69 H36           34.76     23.55     26.62    H    1  VEB        0.0622
     70 C27           32.17     24.17     25.94  C.3    1  VEB        0.0151
     71 C28           34.69     23.94     25.61 C.ar    1  VEB       -0.0543
     72 H37           30.19     26.21      26.0    H    1  VEB        0.0622
     73 H38           32.36     26.25     26.64    H    1  VEB        0.0241
     74 C29           30.83      24.3     25.16 C.ar    1  VEB       -0.0372
     75 C30           29.93     25.37     25.37 C.ar    1  VEB       -0.0543
     76 C31           33.43     24.29     25.06 C.ar    1  VEB       -0.0372
     77 H39           36.81     23.78     25.31    H    1  VEB        0.0654
     78 C32           35.87     24.09     24.87 C.ar    1  VEB       -0.0197
     79 C33           30.42     23.26     24.29 C.ar    1  VEB       -0.0543
     80 C34           28.63     25.34     24.83 C.ar    1  VEB       -0.0197
     81 H40            31.1     22.44     24.08    H    1  VEB        0.0622
     82 H41           27.95     26.16     25.05    H    1  VEB        0.0654
     83 C35           29.12     23.23     23.75 C.ar    1  VEB       -0.0197
     84 C36           28.21     24.25     24.05 C.ar    1  VEB        0.1206
     85 C37            33.4     24.81     23.75 C.ar    1  VEB       -0.0543
     86 H42           38.08     26.31     23.72    H    1  VEB        0.0724
     87 C38           35.83     24.62     23.57 C.ar    1  VEB        0.1206
     88 H43            28.8      22.4     23.14    H    1  VEB        0.0654
     89 O6             26.9     24.11     23.62  O.3    1  VEB       -0.4893
     90 H44           32.46      25.1      23.3    H    1  VEB        0.0622
     91 H45           38.43     24.69     24.35    H    1  VEB        0.0724
     92 C39            38.2     25.25     23.44  C.3    1  VEB        0.1186
     93 C40           34.59     24.96     23.01 C.ar    1  VEB       -0.0197
     94 O7            36.98     24.78     22.83  O.3    1  VEB       -0.4893
     95 O8            39.77     23.72     22.37  O.3    1  VEB       -0.3850
     96 H46           40.78     25.64     24.07    H    1  VEB        0.0725
     97 C41            39.4      25.1     22.48  C.3    1  VEB        0.1230
     98 H47           34.55     25.36      22.0    H    1  VEB        0.0654
     99 H48           40.66     23.73     21.96    H    1  VEB        0.2101
    100 C42           40.63     25.87     23.01  C.3    1  VEB        0.1215
    101 H49           39.13      25.5     21.49    H    1  VEB        0.0662
    102 H50           40.45     26.95     22.92    H    1  VEB        0.0725
    103 O9            41.81     25.49     22.26  O.3    1  VEB       -0.4617
    104 H51           44.97     24.26     23.45    H    1  VEB        0.0237
    105 O10           43.12     26.86     23.52  O.2    1  VEB       -0.2506
    106 C43            43.0     26.04     22.63  C.2    1  VEB        0.3097
    107 C44           45.33     25.01     22.73  C.3    1  VEB       -0.0525
    108 H52           45.74     25.85      23.3    H    1  VEB        0.0237
    109 C45           44.17     25.48     21.81  C.3    1  VEB        0.0508
    110 H53            43.8     24.61     21.26    H    1  VEB        0.0408
    111 H54           46.14     24.56     22.14    H    1  VEB        0.0237
    112 C46           44.67     26.53     20.78  C.3    1  VEB       -0.0525
    113 H55           45.05     27.42     21.29    H    1  VEB        0.0237
    114 H56           43.86     26.83     20.11    H    1  VEB        0.0237
    115 H57           45.49     26.12     20.17    H    1  VEB        0.0237
    116 H58           25.98     24.61     25.44    H    1  VEB        0.0724
    117 H59           25.75     25.78     24.12    H    1  VEB        0.0724
    118 C              3.41     22.27     24.37 C.ar    1 CRO0       -0.0476
    119 C1             2.24      21.5     24.35 C.ar    1 CRO0       -0.0586
    120 C2              2.3      20.1     24.37 C.ar    1 CRO0       -0.0615
    121 C3             3.55     19.45     24.41 C.ar    1 CRO0       -0.0617
    122 C4             4.73     20.22     24.44 C.ar    1 CRO0       -0.0615
    123 C5             4.66     21.62     24.42 C.ar    1 CRO0       -0.0586
    124 C6             3.27     23.79     24.35  C.3    1 CRO0       -0.0305
    125 C7             4.58      24.6     24.38  C.3    1 CRO0       -0.0613
    126 H1             2.71     24.08     23.45    H    1 CRO0        0.0311
    127 H2             5.15     24.38     25.29    H    1 CRO0        0.0233
    128 H3             4.37     25.67     24.35    H    1 CRO0        0.0233
    129 H4             5.21     24.36     23.51    H    1 CRO0        0.0233
    130 H5             5.59     22.18     24.44    H    1 CRO0        0.0620
    131 H6              3.6     18.37     24.43    H    1 CRO0        0.0618
    132 H7             5.69     19.72     24.48    H    1 CRO0        0.0618
    133 H8             1.27     21.98     24.31    H    1 CRO0        0.0620
    134 H9             1.39     19.51     24.35    H    1 CRO0        0.0618
@<TRIPOS>BOND
     1   114   112    1
     2   115   112    1
     3   112   113    1
     4   112   109    1
     5   110   109    1
     6   101    97    1
     7   109   106    1
     8   109   107    1
     9    99    95    1
    10    98    93    1
    11   111   107    1
    12   103   106    1
    13   103   100    1
    14    95    97    1
    15    97   100    1
    16    97    92    1
    17   106   105    2
    18   107   108    1
    19   107   104    1
    20    94    92    1
    21    94    87    1
    22   102   100    1
    23    38    33    1
    24    93    87   ar
    25    93    85   ar
    26   100    96    1
    27    88    83    1
    28    90    85    1
    29    92    86    1
    30    92    91    1
    31    87    78   ar
    32    89    84    1
    33    89    36    1
    34    23    18    1
    35    83    84   ar
    36    83    79   ar
    37    85    76   ar
    38    35    32    1
    39    33    36    1
    40    33    32    1
    41    33    37    1
    42    84    80   ar
    43    81    79    1
    44   117    36    1
    45    30    32    1
    46    30    13    1
    47    79    74   ar
    48    36   116    1
    49    59    58    1
    50    46    41    1
    51    32    34    1
    52    22    17    1
    53    39    37    1
    54    18    17   ar
    55    18    19   ar
    56    13    12   ar
    57    13    14   ar
    58    27    12    1
    59    61    58    1
    60    80    82    1
    61    80    75   ar
    62    28    14    1
    63    78    77    1
    64    78    71   ar
    65    76    71   ar
    66    76    70    1
    67    12    11   ar
    68    14    15   ar
    69    74    75   ar
    70    74    70    1
    71    17    16   ar
    72    58    52    1
    73    58    60    1
    74    31    19    1
    75    31    40    1
    76    75    72    1
    77    41    45    1
    78    41    40    1
    79    41    44    1
    80    19    20   ar
    81    71    69    1
    82    47    45    1
    83    11    26    1
    84    11    10   ar
    85    15    29    1
    86    15    10   ar
    87    48    44    1
    88    48    51    1
    89    52    51    1
    90    52    53    1
    91    70    64    1
    92    70    68    1
    93    66    64    1
    94    49    44    1
    95     5     2    1
    96    10     1    1
    97    40    42    1
    98    40    43    1
    99    44    50    1
   100    51    57    2
   101    16     1    1
   102    16    21   ar
   103    73    68    1
   104    64    63    1
   105    64    62    1
   106    55    53    1
   107    20    21   ar
   108    20    24    1
   109     1     2    1
   110     1     6    1
   111    53    54    1
   112    53    56    1
   113    68    67    1
   114    68    65    1
   115     2     3    1
   116     2     4    1
   117    21    25    1
   118     6     8    1
   119     6     7    1
   120     6     9    1
   121   126   124    1
   122   129   125    1
   123   133   119    1
   124   119   118   ar
   125   119   120   ar
   126   124   118    1
   127   124   125    1
   128   128   125    1
   129   134   120    1
   130   118   123   ar
   131   120   121   ar
   132   125   127    1
   133   121   131    1
   134   121   122   ar
   135   123   122   ar
   136   123   130    1
   137   122   132    1
   138   124    52    1
